#GMS MODFLOW Simulation
#18 October 2013
FREE
HDF5 1.0 -1 "bbottoms.h5" "Arrays/ibound1" 1 0 9600
-999.0
HDF5 1.0 -1 "bbottoms.h5" "Arrays/StartHead1" 1 0 9600
