                                  MODFLOW-2000
      U.S. GEOLOGICAL SURVEY MODULAR FINITE-DIFFERENCE GROUND-WATER FLOW MODEL
                           VERSION 1.19.01 03/25/2010


 This model run produced both GLOBAL and LIST files.  This is the GLOBAL file.

 GLOBAL LISTING FILE: "bbottoms.glo"
                         UNIT  701

 OPENING "bbottoms.out"
 FILE TYPE:LIST   UNIT  702   STATUS:REPLACE
 FORMAT:FORMATTED              ACCESS:SEQUENTIAL          

 OPENING "bbottoms.hed"
 FILE TYPE:DATA(BINARY)   UNIT  730   STATUS:UNKNOWN
 FORMAT:BINARY                 ACCESS:SEQUENTIAL          

 OPENING "bbottoms.ccf"
 FILE TYPE:DATA(BINARY)   UNIT  740   STATUS:UNKNOWN
 FORMAT:BINARY                 ACCESS:SEQUENTIAL          

 OPENING "bbottoms.lmt"
 FILE TYPE:LMT6   UNIT  718   STATUS:OLD    
 FORMAT:FORMATTED              ACCESS:SEQUENTIAL          
#                                                                                                                                                                                                       
# Obs-Sen-Pes Process Input Files                                                                                                                                                                       

 OPENING "bbottoms.obs"
 FILE TYPE:OBS   UNIT  750   STATUS:OLD    
 FORMAT:FORMATTED              ACCESS:SEQUENTIAL          

 OPENING "bbottoms.rvob"
 FILE TYPE:RVOB   UNIT  752   STATUS:OLD    
 FORMAT:FORMATTED              ACCESS:SEQUENTIAL          

 OPENING "bbottoms.drob"
 FILE TYPE:DROB   UNIT  754   STATUS:OLD    
 FORMAT:FORMATTED              ACCESS:SEQUENTIAL          

 FILE TYPE:ASP: FILE = bbottoms.asp
#                                                                                                                                                                                                       
# Global Input Files                                                                                                                                                                                    

 OPENING "bbottoms.dis"
 FILE TYPE:DIS   UNIT  719   STATUS:OLD    
 FORMAT:FORMATTED              ACCESS:SEQUENTIAL          
#                                                                                                                                                                                                       
# Flow Process Input Files                                                                                                                                                                              

 OPENING "bbottoms.ba6"
 FILE TYPE:BAS6   UNIT  703   STATUS:OLD    
 FORMAT:FORMATTED              ACCESS:SEQUENTIAL          

 OPENING "bbottoms.lpf"
 FILE TYPE:LPF   UNIT  704   STATUS:OLD    
 FORMAT:FORMATTED              ACCESS:SEQUENTIAL          

 OPENING "bbottoms.oc"
 FILE TYPE:OC   UNIT  715   STATUS:OLD    
 FORMAT:FORMATTED              ACCESS:SEQUENTIAL          

 OPENING "bbottoms.rch"
 FILE TYPE:RCH   UNIT  716   STATUS:OLD    
 FORMAT:FORMATTED              ACCESS:SEQUENTIAL          

 OPENING "bbottoms.riv"
 FILE TYPE:RIV   UNIT  708   STATUS:OLD    
 FORMAT:FORMATTED              ACCESS:SEQUENTIAL          

 OPENING "bbottoms.wel"
 FILE TYPE:WEL   UNIT  709   STATUS:OLD    
 FORMAT:FORMATTED              ACCESS:SEQUENTIAL          

 OPENING "bbottoms.drn"
 FILE TYPE:DRN   UNIT  710   STATUS:OLD    
 FORMAT:FORMATTED              ACCESS:SEQUENTIAL          

 OPENING "bbottoms.pcg"
 FILE TYPE:PCG   UNIT  714   STATUS:OLD    
 FORMAT:FORMATTED              ACCESS:SEQUENTIAL          

 THE FREE FORMAT OPTION HAS BEEN SELECTED

 DISCRETIZATION INPUT DATA READ FROM UNIT  719
 # MF2K DISCRETIZATION FILE
 #
 #
 # NLAY NROW NCOL NPER TIMEUNITS LENUNITS
    1 LAYERS       120 ROWS        80 COLUMNS
    1 STRESS PERIOD(S) IN SIMULATION
 MODEL TIME UNIT IS DAYS
 MODEL LENGTH UNIT IS METERS
 THE GROUND-WATER TRANSPORT PROCESS IS INACTIVE

 THE OBSERVATION PROCESS IS ACTIVE
 THE SENSITIVITY PROCESS IS INACTIVE
 THE PARAMETER-ESTIMATION PROCESS IS INACTIVE

 MODE: FORWARD WITH OBSERVATIONS

  Confining bed flag for each layer:
   0

      86600  ELEMENTS OF GX ARRAY USED OUT OF      86600
       9600  ELEMENTS OF GZ ARRAY USED OUT OF       9600
       9600  ELEMENTS OF IG ARRAY USED OUT OF       9600

 -------------------------------------------------------------------------------

 VARIABLES READ FROM ASP INPUT FILE:-

 NOSTOP = 0          : CEASE EXECUTION IF MODFLOW FAILS TO CONVERGE.
 HYDRYBOT = 0        : ASSIGN HDRY TO HEAD IN DRY CELL.
 MINTHICK =     0.000: DO NOT PREVENT BASAL CELLS DRYING OUT.
 LIMOP = 0           : NO LIMITATIONS ON OBSERVATION OR SENSITIVITY OUTPUT.

 -------------------------------------------------------------------------------




                               DELR
 READING ON UNIT  719 WITH FORMAT: (FREE)              



                               DELC
 READING ON UNIT  719 WITH FORMAT: (FREE)              


 STRESS PERIOD     LENGTH       TIME STEPS     MULTIPLIER FOR DELT    SS FLAG
 ----------------------------------------------------------------------------
        1         1.000000          1                    1.000         SS

 STEADY-STATE SIMULATION




 LPF1 -- LAYER PROPERTY FLOW PACKAGE, VERSION 1, 1/11/2000
         INPUT READ FROM UNIT  704
 CELL-BY-CELL FLOWS WILL BE SAVED ON UNIT  740
 HEAD AT CELLS THAT CONVERT TO DRY=  -888.00    
 No named parameters

   LAYER FLAGS:
 LAYER       LAYTYP        LAYAVG         CHANI        LAYVKA        LAYWET
 ---------------------------------------------------------------------------
    1             1             0    -1.000E+00             1             0

   INTERPRETATION OF LAYER FLAGS:
                        INTERBLOCK     HORIZONTAL    DATA IN
         LAYER TYPE   TRANSMISSIVITY   ANISOTROPY   ARRAY VKA   WETTABILITY
 LAYER      (LAYTYP)      (LAYAVG)       (CHANI)      (LAYVKA)      (LAYWET)
 ---------------------------------------------------------------------------
    1   CONVERTIBLE      HARMONIC      VARIABLE    ANISOTROPY  NON-WETTABLE

      28800 ELEMENTS IN X ARRAY ARE USED BY LPF
          6 ELEMENTS IN IX ARRAY ARE USED BY LPF

 PCG2 -- CONJUGATE GRADIENT SOLUTION PACKAGE, VERSION 2.4, 12/29/98
 MAXIMUM OF     25 CALLS OF SOLUTION ROUTINE
 MAXIMUM OF     50 INTERNAL ITERATIONS PER CALL TO SOLUTION ROUTINE
 MATRIX PRECONDITIONING TYPE :    1
      21700 ELEMENTS IN X ARRAY ARE USED BY PCG
       8750 ELEMENTS IN IX ARRAY ARE USED BY PCG
      38400 ELEMENTS IN Z ARRAY ARE USED BY PCG

 OBS1BAS6 -- OBSERVATION PROCESS, VERSION 1.0, 4/27/99
 INPUT READ FROM UNIT 750
 OBSERVATION GRAPH-DATA OUTPUT FILES
 WILL BE PRINTED AND NAMED USING THE BASE: bbottoms

 OBS1DRN6 -- OBSERVATION PROCESS (DRAIN FLOW OBSERVATIONS)
 VERSION 1.0, 10/15/98
 INPUT READ FROM UNIT  754
 #           CoverageGUID ObjectType ID X Y Time OBNAME
 #GMSCOMMENT 8ebc77fe-9a41-433e-b58d-44fdc908a9f3 POLY 1 453251.71259321 4239900.0 1.0 no_drnf0

 NUMBER OF FLOW-OBSERVATION DRAIN-CELL GROUPS.....:      1
   NUMBER OF CELLS IN DRAIN-CELL GROUPS...........:    870
   NUMBER OF DRAIN-CELL FLOWS.....................:      1

 OBS1RIV6 -- OBSERVATION PROCESS (RIVER FLOW OBSERVATIONS)
 VERSION 1.0, 10/15/98
 INPUT READ FROM UNIT  752
 #           CoverageGUID ObjectType ID X Y Time OBNAME
 #GMSCOMMENT 26e3d801-9464-4a55-b60f-41ba1963025a ARC 10 450109.66650483 4242943.0102164 1.0 no_rivf0
 #GMSCOMMENT 26e3d801-9464-4a55-b60f-41ba1963025a ARC 12 452121.87221488 4242839.2907383 1.0 no_rivf1
 #GMSCOMMENT 26e3d801-9464-4a55-b60f-41ba1963025a ARC 14 450537.5 4242569.5 1.0 no_rivf2
 #GMSCOMMENT 26e3d801-9464-4a55-b60f-41ba1963025a ARC 15 451470.28112681 4240509.088415 1.0 no_rivf3
 #GMSCOMMENT 26e3d801-9464-4a55-b60f-41ba1963025a ARC 16 452057.28068464 4238740.7020879 1.0 no_rivf4
 #GMSCOMMENT 26e3d801-9464-4a55-b60f-41ba1963025a ARC 18 453476.10567304 4239749.5077026 1.0 no_rivf5
 #GMSCOMMENT 26e3d801-9464-4a55-b60f-41ba1963025a ARC 19 454570.20148819 4239977.6983081 1.0 no_rivf6
 #GMSCOMMENT 26e3d801-9464-4a55-b60f-41ba1963025a ARC 21 453768.47203349 4239021.155092 1.0 no_rivf7
 #GMSCOMMENT 26e3d801-9464-4a55-b60f-41ba1963025a ARC 5 449947.26647382 4244379.3365346 1.0 no_rivf8
 #GMSCOMMENT 26e3d801-9464-4a55-b60f-41ba1963025a ARC 7 449292.93292107 4243998.3938812 1.0 no_rivf9
 #GMSCOMMENT 26e3d801-9464-4a55-b60f-41ba1963025a ARC 9 450191.80686306 4243252.8576744 1.0 no_rivf10

 NUMBER OF FLOW-OBSERVATION RIVER-CELL GROUPS.....:     11
   NUMBER OF CELLS IN RIVER-CELL GROUPS...........:    395
   NUMBER OF RIVER-CELL FLOWS.....................:     11

       6791 ELEMENTS IN X ARRAY ARE USED FOR OBSERVATIONS
        182 ELEMENTS IN Z ARRAY ARE USED FOR OBSERVATIONS
         99 ELEMENTS IN IX ARRAY ARE USED FOR OBSERVATIONS

 COMMON ERROR VARIANCE FOR ALL OBSERVATIONS SET TO:       1.000    

      57291  ELEMENTS OF X ARRAY USED OUT OF      57291
      38582  ELEMENTS OF Z ARRAY USED OUT OF      38582
       8855  ELEMENTS OF IX ARRAY USED OUT OF       8855
          0  ELEMENTS OF XHS ARRAY USED OUT OF          1

 DRAIN-CELL FLOW OBSERVATION VARIANCES ARE MULTIPLIED BY:       1.000    

 OBSERVED DRAIN-CELL FLOW DATA
 -- TIME OFFSETS ARE MULTIPLIED BY:   1.0000    

 GROUP NUMBER:      1    BOUNDARY TYPE: DRN    NUMBER OF CELLS IN GROUP:    870
 NUMBER OF FLOW OBSERVATIONS:      1

                    REFER.              OBSERVED
       OBSERVATION  STRESS    TIME     DRAIN FLOW               STATISTIC   PLOT
  OBS#    NAME      PERIOD   OFFSET     GAIN (-)    STATISTIC     TYPE      SYM.
     1 no_drnf0         1    0.000       1.000      0.1000E+19  STD. DEV.      1

       LAYER  ROW  COLUMN    FACTOR
          1.  100.     9.     1.00
          1.   99.     9.     1.00
          1.   98.     9.     1.00
          1.  101.    10.     1.00
          1.  100.    10.     1.00
          1.   99.    10.     1.00
          1.   98.    10.     1.00
          1.   97.    10.     1.00
          1.   96.    10.     1.00
          1.  101.    11.     1.00
          1.  100.    11.     1.00
          1.   99.    11.     1.00
          1.   98.    11.     1.00
          1.   97.    11.     1.00
          1.   96.    11.     1.00
          1.   95.    11.     1.00
          1.   94.    11.     1.00
          1.  102.    12.     1.00
          1.  101.    12.     1.00
          1.  100.    12.     1.00
          1.   99.    12.     1.00
          1.   98.    12.     1.00
          1.   97.    12.     1.00
          1.   96.    12.     1.00
          1.   95.    12.     1.00
          1.   94.    12.     1.00
          1.   93.    12.     1.00
          1.  102.    13.     1.00
          1.  101.    13.     1.00
          1.  100.    13.     1.00
          1.   99.    13.     1.00
          1.   98.    13.     1.00
          1.   97.    13.     1.00
          1.   96.    13.     1.00
          1.   95.    13.     1.00
          1.   94.    13.     1.00
          1.   93.    13.     1.00
          1.   92.    13.     1.00
          1.  102.    14.     1.00
          1.  101.    14.     1.00
          1.  100.    14.     1.00
          1.   99.    14.     1.00
          1.   98.    14.     1.00
          1.   97.    14.     1.00
          1.   96.    14.     1.00
          1.   95.    14.     1.00
          1.   94.    14.     1.00
          1.   93.    14.     1.00
          1.   92.    14.     1.00
          1.   91.    14.     1.00
          1.  101.    15.     1.00
          1.  100.    15.     1.00
          1.   99.    15.     1.00
          1.   98.    15.     1.00
          1.   97.    15.     1.00
          1.   96.    15.     1.00
          1.   95.    15.     1.00
          1.   94.    15.     1.00
          1.   93.    15.     1.00
          1.   92.    15.     1.00
          1.   91.    15.     1.00
          1.   90.    15.     1.00
          1.   89.    15.     1.00
          1.  101.    16.     1.00
          1.  100.    16.     1.00
          1.   99.    16.     1.00
          1.   98.    16.     1.00
          1.   97.    16.     1.00
          1.   96.    16.     1.00
          1.   95.    16.     1.00
          1.   94.    16.     1.00
          1.   93.    16.     1.00
          1.   92.    16.     1.00
          1.   91.    16.     1.00
          1.   90.    16.     1.00
          1.   89.    16.     1.00
          1.   88.    16.     1.00
          1.  101.    17.     1.00
          1.  100.    17.     1.00
          1.   99.    17.     1.00
          1.   98.    17.     1.00
          1.   97.    17.     1.00
          1.   96.    17.     1.00
          1.   95.    17.     1.00
          1.   94.    17.     1.00
          1.   93.    17.     1.00
          1.   92.    17.     1.00
          1.   91.    17.     1.00
          1.   90.    17.     1.00
          1.   89.    17.     1.00
          1.   88.    17.     1.00
          1.   87.    17.     1.00
          1.  101.    18.     1.00
          1.  100.    18.     1.00
          1.   99.    18.     1.00
          1.   98.    18.     1.00
          1.   97.    18.     1.00
          1.   96.    18.     1.00
          1.   95.    18.     1.00
          1.   94.    18.     1.00
          1.   93.    18.     1.00
          1.   92.    18.     1.00
          1.   91.    18.     1.00
          1.   90.    18.     1.00
          1.   89.    18.     1.00
          1.   88.    18.     1.00
          1.   87.    18.     1.00
          1.   86.    18.     1.00
          1.   85.    18.     1.00
          1.  101.    19.     1.00
          1.  100.    19.     1.00
          1.   99.    19.     1.00
          1.   98.    19.     1.00
          1.   97.    19.     1.00
          1.   96.    19.     1.00
          1.   95.    19.     1.00
          1.   94.    19.     1.00
          1.   93.    19.     1.00
          1.   92.    19.     1.00
          1.   91.    19.     1.00
          1.   90.    19.     1.00
          1.   89.    19.     1.00
          1.   88.    19.     1.00
          1.   87.    19.     1.00
          1.   86.    19.     1.00
          1.   85.    19.     1.00
          1.   84.    19.     1.00
          1.   83.    19.     1.00
          1.   82.    19.     1.00
          1.   81.    19.     1.00
          1.   80.    19.     1.00
          1.   79.    19.     1.00
          1.   78.    19.     1.00
          1.   77.    19.     1.00
          1.  102.    20.     1.00
          1.  101.    20.     1.00
          1.  100.    20.     1.00
          1.   99.    20.     1.00
          1.   98.    20.     1.00
          1.   97.    20.     1.00
          1.   96.    20.     1.00
          1.   95.    20.     1.00
          1.   94.    20.     1.00
          1.   93.    20.     1.00
          1.   92.    20.     1.00
          1.   91.    20.     1.00
          1.   90.    20.     1.00
          1.   89.    20.     1.00
          1.   88.    20.     1.00
          1.   87.    20.     1.00
          1.   86.    20.     1.00
          1.   85.    20.     1.00
          1.   84.    20.     1.00
          1.   83.    20.     1.00
          1.   82.    20.     1.00
          1.   81.    20.     1.00
          1.   80.    20.     1.00
          1.   79.    20.     1.00
          1.   78.    20.     1.00
          1.   77.    20.     1.00
          1.   76.    20.     1.00
          1.   69.    20.     1.00
          1.   64.    20.     1.00
          1.   63.    20.     1.00
          1.   62.    20.     1.00
          1.   61.    20.     1.00
          1.   60.    20.     1.00
          1.  102.    21.     1.00
          1.  101.    21.     1.00
          1.  100.    21.     1.00
          1.   99.    21.     1.00
          1.   98.    21.     1.00
          1.   97.    21.     1.00
          1.   96.    21.     1.00
          1.   95.    21.     1.00
          1.   94.    21.     1.00
          1.   93.    21.     1.00
          1.   92.    21.     1.00
          1.   91.    21.     1.00
          1.   90.    21.     1.00
          1.   89.    21.     1.00
          1.   88.    21.     1.00
          1.   87.    21.     1.00
          1.   86.    21.     1.00
          1.   85.    21.     1.00
          1.   84.    21.     1.00
          1.   83.    21.     1.00
          1.   82.    21.     1.00
          1.   81.    21.     1.00
          1.   80.    21.     1.00
          1.   79.    21.     1.00
          1.   78.    21.     1.00
          1.   77.    21.     1.00
          1.   76.    21.     1.00
          1.   75.    21.     1.00
          1.   74.    21.     1.00
          1.   73.    21.     1.00
          1.   72.    21.     1.00
          1.   71.    21.     1.00
          1.   70.    21.     1.00
          1.   69.    21.     1.00
          1.   68.    21.     1.00
          1.   67.    21.     1.00
          1.   66.    21.     1.00
          1.   65.    21.     1.00
          1.   64.    21.     1.00
          1.   63.    21.     1.00
          1.   62.    21.     1.00
          1.   61.    21.     1.00
          1.   60.    21.     1.00
          1.   59.    21.     1.00
          1.  102.    22.     1.00
          1.  101.    22.     1.00
          1.  100.    22.     1.00
          1.   99.    22.     1.00
          1.   98.    22.     1.00
          1.   97.    22.     1.00
          1.   96.    22.     1.00
          1.   95.    22.     1.00
          1.   94.    22.     1.00
          1.   93.    22.     1.00
          1.   92.    22.     1.00
          1.   91.    22.     1.00
          1.   90.    22.     1.00
          1.   89.    22.     1.00
          1.   88.    22.     1.00
          1.   87.    22.     1.00
          1.   86.    22.     1.00
          1.   85.    22.     1.00
          1.   84.    22.     1.00
          1.   83.    22.     1.00
          1.   82.    22.     1.00
          1.   81.    22.     1.00
          1.   80.    22.     1.00
          1.   79.    22.     1.00
          1.   78.    22.     1.00
          1.   77.    22.     1.00
          1.   76.    22.     1.00
          1.   75.    22.     1.00
          1.   74.    22.     1.00
          1.   73.    22.     1.00
          1.   72.    22.     1.00
          1.   71.    22.     1.00
          1.   70.    22.     1.00
          1.   69.    22.     1.00
          1.   68.    22.     1.00
          1.   67.    22.     1.00
          1.   66.    22.     1.00
          1.   65.    22.     1.00
          1.   64.    22.     1.00
          1.   63.    22.     1.00
          1.   62.    22.     1.00
          1.   61.    22.     1.00
          1.   60.    22.     1.00
          1.   59.    22.     1.00
          1.  102.    23.     1.00
          1.  101.    23.     1.00
          1.  100.    23.     1.00
          1.   99.    23.     1.00
          1.   98.    23.     1.00
          1.   97.    23.     1.00
          1.   96.    23.     1.00
          1.   95.    23.     1.00
          1.   94.    23.     1.00
          1.   93.    23.     1.00
          1.   92.    23.     1.00
          1.   91.    23.     1.00
          1.   90.    23.     1.00
          1.   89.    23.     1.00
          1.   88.    23.     1.00
          1.   87.    23.     1.00
          1.   86.    23.     1.00
          1.   85.    23.     1.00
          1.   84.    23.     1.00
          1.   83.    23.     1.00
          1.   82.    23.     1.00
          1.   81.    23.     1.00
          1.   80.    23.     1.00
          1.   79.    23.     1.00
          1.   78.    23.     1.00
          1.   77.    23.     1.00
          1.   76.    23.     1.00
          1.   75.    23.     1.00
          1.   74.    23.     1.00
          1.   73.    23.     1.00
          1.   72.    23.     1.00
          1.   71.    23.     1.00
          1.   70.    23.     1.00
          1.   69.    23.     1.00
          1.   68.    23.     1.00
          1.   67.    23.     1.00
          1.   66.    23.     1.00
          1.   65.    23.     1.00
          1.   64.    23.     1.00
          1.   63.    23.     1.00
          1.   62.    23.     1.00
          1.   61.    23.     1.00
          1.   60.    23.     1.00
          1.   59.    23.     1.00
          1.  101.    24.     1.00
          1.  100.    24.     1.00
          1.   99.    24.     1.00
          1.   98.    24.     1.00
          1.   97.    24.     1.00
          1.   96.    24.     1.00
          1.   95.    24.     1.00
          1.   94.    24.     1.00
          1.   93.    24.     1.00
          1.   92.    24.     1.00
          1.   91.    24.     1.00
          1.   90.    24.     1.00
          1.   89.    24.     1.00
          1.   88.    24.     1.00
          1.   87.    24.     1.00
          1.   86.    24.     1.00
          1.   85.    24.     1.00
          1.   84.    24.     1.00
          1.   83.    24.     1.00
          1.   82.    24.     1.00
          1.   81.    24.     1.00
          1.   80.    24.     1.00
          1.   79.    24.     1.00
          1.   78.    24.     1.00
          1.   77.    24.     1.00
          1.   76.    24.     1.00
          1.   75.    24.     1.00
          1.   74.    24.     1.00
          1.   73.    24.     1.00
          1.   72.    24.     1.00
          1.   71.    24.     1.00
          1.   70.    24.     1.00
          1.   69.    24.     1.00
          1.   68.    24.     1.00
          1.   67.    24.     1.00
          1.   66.    24.     1.00
          1.   65.    24.     1.00
          1.   64.    24.     1.00
          1.   63.    24.     1.00
          1.   62.    24.     1.00
          1.   61.    24.     1.00
          1.   60.    24.     1.00
          1.   59.    24.     1.00
          1.  101.    25.     1.00
          1.  100.    25.     1.00
          1.   99.    25.     1.00
          1.   98.    25.     1.00
          1.   97.    25.     1.00
          1.   96.    25.     1.00
          1.   95.    25.     1.00
          1.   94.    25.     1.00
          1.   93.    25.     1.00
          1.   92.    25.     1.00
          1.   91.    25.     1.00
          1.   90.    25.     1.00
          1.   89.    25.     1.00
          1.   88.    25.     1.00
          1.   87.    25.     1.00
          1.   86.    25.     1.00
          1.   82.    25.     1.00
          1.   81.    25.     1.00
          1.   80.    25.     1.00
          1.   79.    25.     1.00
          1.   78.    25.     1.00
          1.   77.    25.     1.00
          1.   76.    25.     1.00
          1.   75.    25.     1.00
          1.   74.    25.     1.00
          1.   73.    25.     1.00
          1.   72.    25.     1.00
          1.   71.    25.     1.00
          1.   70.    25.     1.00
          1.   69.    25.     1.00
          1.   68.    25.     1.00
          1.   67.    25.     1.00
          1.   66.    25.     1.00
          1.   65.    25.     1.00
          1.   64.    25.     1.00
          1.   63.    25.     1.00
          1.   62.    25.     1.00
          1.   61.    25.     1.00
          1.  101.    26.     1.00
          1.  100.    26.     1.00
          1.   99.    26.     1.00
          1.   98.    26.     1.00
          1.   97.    26.     1.00
          1.   96.    26.     1.00
          1.   95.    26.     1.00
          1.   94.    26.     1.00
          1.   93.    26.     1.00
          1.   92.    26.     1.00
          1.   91.    26.     1.00
          1.   90.    26.     1.00
          1.   89.    26.     1.00
          1.   82.    26.     1.00
          1.   81.    26.     1.00
          1.   80.    26.     1.00
          1.   79.    26.     1.00
          1.   78.    26.     1.00
          1.   77.    26.     1.00
          1.   76.    26.     1.00
          1.   75.    26.     1.00
          1.   74.    26.     1.00
          1.   73.    26.     1.00
          1.   72.    26.     1.00
          1.   71.    26.     1.00
          1.   70.    26.     1.00
          1.   69.    26.     1.00
          1.   68.    26.     1.00
          1.   67.    26.     1.00
          1.   66.    26.     1.00
          1.   65.    26.     1.00
          1.   64.    26.     1.00
          1.   63.    26.     1.00
          1.   62.    26.     1.00
          1.  101.    27.     1.00
          1.  100.    27.     1.00
          1.   99.    27.     1.00
          1.   98.    27.     1.00
          1.   97.    27.     1.00
          1.   96.    27.     1.00
          1.   95.    27.     1.00
          1.   94.    27.     1.00
          1.   93.    27.     1.00
          1.   92.    27.     1.00
          1.   91.    27.     1.00
          1.   81.    27.     1.00
          1.   80.    27.     1.00
          1.   79.    27.     1.00
          1.   78.    27.     1.00
          1.   77.    27.     1.00
          1.   76.    27.     1.00
          1.   75.    27.     1.00
          1.   74.    27.     1.00
          1.   73.    27.     1.00
          1.   72.    27.     1.00
          1.   71.    27.     1.00
          1.   70.    27.     1.00
          1.   69.    27.     1.00
          1.   68.    27.     1.00
          1.   67.    27.     1.00
          1.   66.    27.     1.00
          1.   65.    27.     1.00
          1.   64.    27.     1.00
          1.  101.    28.     1.00
          1.  100.    28.     1.00
          1.   99.    28.     1.00
          1.   98.    28.     1.00
          1.   97.    28.     1.00
          1.   96.    28.     1.00
          1.   95.    28.     1.00
          1.   94.    28.     1.00
          1.   93.    28.     1.00
          1.   80.    28.     1.00
          1.   79.    28.     1.00
          1.   78.    28.     1.00
          1.   77.    28.     1.00
          1.   76.    28.     1.00
          1.   75.    28.     1.00
          1.   74.    28.     1.00
          1.   73.    28.     1.00
          1.   72.    28.     1.00
          1.   71.    28.     1.00
          1.   70.    28.     1.00
          1.   69.    28.     1.00
          1.   68.    28.     1.00
          1.   67.    28.     1.00
          1.   66.    28.     1.00
          1.   65.    28.     1.00
          1.  100.    29.     1.00
          1.   99.    29.     1.00
          1.   98.    29.     1.00
          1.   97.    29.     1.00
          1.   96.    29.     1.00
          1.   95.    29.     1.00
          1.   94.    29.     1.00
          1.   77.    29.     1.00
          1.   76.    29.     1.00
          1.   75.    29.     1.00
          1.   74.    29.     1.00
          1.   73.    29.     1.00
          1.   99.    30.     1.00
          1.   98.    30.     1.00
          1.   97.    30.     1.00
          1.   96.    30.     1.00
          1.   95.    30.     1.00
          1.   94.    30.     1.00
          1.   82.    30.     1.00
          1.   81.    30.     1.00
          1.   80.    30.     1.00
          1.   99.    31.     1.00
          1.   98.    31.     1.00
          1.   97.    31.     1.00
          1.   96.    31.     1.00
          1.   95.    31.     1.00
          1.   84.    31.     1.00
          1.   83.    31.     1.00
          1.   82.    31.     1.00
          1.   81.    31.     1.00
          1.   80.    31.     1.00
          1.   99.    32.     1.00
          1.   98.    32.     1.00
          1.   97.    32.     1.00
          1.   96.    32.     1.00
          1.   95.    32.     1.00
          1.   85.    32.     1.00
          1.   84.    32.     1.00
          1.   83.    32.     1.00
          1.   82.    32.     1.00
          1.   81.    32.     1.00
          1.   80.    32.     1.00
          1.   99.    33.     1.00
          1.   98.    33.     1.00
          1.   97.    33.     1.00
          1.   96.    33.     1.00
          1.   87.    33.     1.00
          1.   86.    33.     1.00
          1.   85.    33.     1.00
          1.   84.    33.     1.00
          1.   83.    33.     1.00
          1.   82.    33.     1.00
          1.   81.    33.     1.00
          1.   80.    33.     1.00
          1.   99.    34.     1.00
          1.   98.    34.     1.00
          1.   97.    34.     1.00
          1.   96.    34.     1.00
          1.   87.    34.     1.00
          1.   86.    34.     1.00
          1.   85.    34.     1.00
          1.   84.    34.     1.00
          1.   83.    34.     1.00
          1.   82.    34.     1.00
          1.   81.    34.     1.00
          1.   80.    34.     1.00
          1.   99.    35.     1.00
          1.   98.    35.     1.00
          1.   97.    35.     1.00
          1.   88.    35.     1.00
          1.   87.    35.     1.00
          1.   86.    35.     1.00
          1.   85.    35.     1.00
          1.   84.    35.     1.00
          1.   83.    35.     1.00
          1.   82.    35.     1.00
          1.   81.    35.     1.00
          1.   99.    36.     1.00
          1.   98.    36.     1.00
          1.   97.    36.     1.00
          1.   96.    36.     1.00
          1.   89.    36.     1.00
          1.   88.    36.     1.00
          1.   87.    36.     1.00
          1.   86.    36.     1.00
          1.   85.    36.     1.00
          1.   84.    36.     1.00
          1.   83.    36.     1.00
          1.   82.    36.     1.00
          1.   81.    36.     1.00
          1.   99.    37.     1.00
          1.   98.    37.     1.00
          1.   97.    37.     1.00
          1.   96.    37.     1.00
          1.   89.    37.     1.00
          1.   88.    37.     1.00
          1.   87.    37.     1.00
          1.   86.    37.     1.00
          1.   85.    37.     1.00
          1.   84.    37.     1.00
          1.   83.    37.     1.00
          1.   82.    37.     1.00
          1.   99.    38.     1.00
          1.   98.    38.     1.00
          1.   97.    38.     1.00
          1.   96.    38.     1.00
          1.   95.    38.     1.00
          1.   91.    38.     1.00
          1.   90.    38.     1.00
          1.   89.    38.     1.00