# GHB package for MODFLOW-2000 generated by Flopy 3.9.3
       851       740  AUX IFACE  AUX CONDFACT  AUX CELLGRP
       851         0 # stress period 1
         1        75        20       120 0.0460919         6   132.687         1
         1        74        20       120  0.125938         6   362.542         1
         1        73        20       120  0.162952         6   469.098         1
         1        72        20       120  0.163117         6   469.572         1
         1        71        20       120  0.133151         6   383.307         1
         1        70        20       120  0.108482         6   312.291         1
         1        69        20       120  0.088236         6   254.009         1
         1        68        20       120 0.0647592         6   186.425         1
         1        67        20       120 0.0431096         6   124.101         1
         1        66        20       120  0.013609         6   39.1768         1
         1        76        21       120 0.0431677         6   124.269         1
         1        75        21       120  0.219335         6   631.409         1
         1        74        21       120  0.212451         6   611.591         1
         1        73        21       120  0.193137         6   555.992         1
         1        72        21       120  0.175579         6   505.447         1
         1        71        21       120  0.159617         6   459.497         1
         1        70        21       120  0.145107         6   417.725         1
         1        69        21       120  0.131915         6    379.75         1
         1        68        21       120  0.119923         6   345.227         1
         1        67        21       120  0.131915         6    379.75         1
         1        66        21       120  0.144818         6   416.894         1
         1        65        21       120  0.133008         6   382.897         1
         1        64        21       120  0.096383         6   277.462         1
         1        63        21       120 0.0339625         6   97.7692         1
         1        77        22       120 0.0128254         6    36.921         1
         1        76        22       120  0.199629         6   574.679         1
         1        75        22       120  0.212451         6   611.591         1
         1        74        22       120  0.193137         6   555.992         1
         1        73        22       120  0.175579         6   505.447         1
         1        72        22       120  0.159617         6   459.497         1
         1        71        22       120  0.145107         6   417.725         1
         1        70        22       120  0.131915         6    379.75         1
         1        69        22       120  0.119923         6   345.227         1
         1        68        22       120  0.109021         6   313.843         1
         1        67        22       120  0.119923         6   345.227         1
         1        66        22       120  0.131915         6    379.75         1
         1        65        22       120  0.145107         6   417.725         1
         1        64        22       120  0.159617         6   459.497         1
         1        63        22       120  0.151864         6   437.176         1
         1        62        22       120 0.00291175         6   8.38218         1
         1        77        23       120  0.114525         6   329.687         1
         1        76        23       120  0.212451         6   611.591         1
         1        75        23       120  0.193137         6   555.992         1
         1        74        23       120  0.175579         6   505.447         1
         1        73        23       120  0.159617         6   459.497         1
         1        72        23       120  0.145107         6   417.725         1
         1        71        23       120  0.131915         6    379.75         1
         1        70        23       120  0.119923         6   345.227         1
         1        69        23       120  0.109021         6   313.843         1
         1        68        23       120 0.0991098         6   285.312         1
         1        67        23       120  0.109021         6   313.843         1
         1        66        23       120  0.119923         6   345.227         1
         1        65        23       120  0.131915         6    379.75         1
         1        64        23       120  0.145107         6   417.725         1
         1        63        23       120  0.159617         6   459.497         1
         1        62        23       120 0.0561443         6   161.625         1
         1        77        24       120  0.163017         6   469.284         1
         1        76        24       120  0.193137         6   555.992         1
         1        75        24       120  0.175579         6   505.447         1
         1        74        24       120  0.159617         6   459.497         1
         1        73        24       120  0.145107         6   417.725         1
         1        72        24       120  0.131915         6    379.75         1
         1        71        24       120  0.119923         6   345.227         1
         1        70        24       120  0.109021         6   313.843         1
         1        69        24       120 0.0991098         6   285.312         1
         1        68        24       120 0.0900998         6   259.374         1
         1        67        24       120 0.0991098         6   285.312         1
         1        66        24       120  0.109021         6   313.843         1
         1        65        24       120  0.119923         6   345.227         1
         1        64        24       120  0.131915         6    379.75         1
         1        63        24       120  0.145107         6   417.725         1
         1        62        24       120  0.129712         6   373.406         1
         1        61        24       120 0.00676179         6   19.4655         1
         1        78        25       120 0.00591223         6   17.0198         1
         1        77        25       120  0.188118         6   541.544         1
         1        76        25       120  0.175579         6   505.447         1
         1        75        25       120  0.159617         6   459.497         1
         1        74        25       120  0.145107         6   417.725         1
         1        73        25       120  0.131915         6    379.75         1
         1        72        25       120  0.119923         6   345.227         1
         1        71        25       120  0.109021         6   313.843         1
         1        70        25       120 0.0991098         6   285.312         1
         1        69        25       120 0.0900998         6   259.374         1
         1        68        25       120 0.0819089         6   235.795         1
         1        67        25       120 0.0900998         6   259.374         1
         1        66        25       120 0.0991098         6   285.312         1
         1        65        25       120  0.109021         6   313.843         1
         1        64        25       120  0.119923         6   345.227         1
         1        63        25       120  0.131915         6    379.75         1
         1        62        25       120  0.145107         6   417.725         1
         1        61        25       120 0.0949246         6   273.263         1
         1        78        26       120  0.038691         6   111.382         1
         1        77        26       120  0.175579         6   505.447         1
         1        76        26       120  0.159617         6   459.497         1
         1        75        26       120  0.145107         6   417.725         1
         1        74        26       120  0.131915         6    379.75         1
         1        73        26       120  0.119923         6   345.227         1
         1        72        26       120  0.109021         6   313.843         1
         1        71        26       120 0.0991098         6   285.312         1
         1        70        26       120 0.0900998         6   259.374         1
         1        69        26       120 0.0819089         6   235.795         1
         1        68        26       120 0.0744627         6   214.359         1
         1        67        26       120 0.0819089         6   235.795         1
         1        66        26       120 0.0900998         6   259.374         1
         1        65        26       120 0.0991098         6   285.312         1
         1        64        26       120  0.109021         6   313.843         1
         1        63        26       120  0.119923         6   345.227         1
         1        62        26       120  0.131915         6    379.75         1
         1        61        26       120   0.14477         6   416.755         1
         1        60        26       120 0.0387234         6   111.475         1
         1        78        27       120 0.0664785         6   191.374         1
         1        77        27       120  0.159617         6   459.497         1
         1        76        27       120  0.145107         6   417.725         1
         1        75        27       120  0.131915         6    379.75         1
         1        74        27       120  0.119923         6   345.227         1
         1        73        27       120  0.109021         6   313.843         1
         1        72        27       120 0.0991098         6   285.312         1
         1        71        27       120 0.0900998         6   259.374         1
         1        70        27       120 0.0819089         6   235.795         1
         1        69        27       120 0.0744627         6   214.359         1
         1        68        27       120 0.0676933         6   194.872         1
         1        67        27       120 0.0744627         6   214.359         1
         1        66        27       120 0.0819089         6   235.795         1
         1        65        27       120 0.0900998         6   259.374         1
         1        64        27       120 0.0991098         6   285.312         1
         1        63        27       120  0.109021         6   313.843         1
         1        62        27       120  0.119923         6   345.227         1
         1        61        27       120  0.131915         6    379.75         1
         1        60        27       120  0.114768         6   33 0.387         1
         1        59        27       120 0.000457969         6   1.31837         1
         1        78        28       120 0.0863067         6   248.455         1
         1        77        28       120  0.145107         6   417.725         1
         1        76        28       120  0.131915         6    379.75         1
         1        75        28       120  0.119923         6   345.227         1
         1        74        28       120  0.109021         6   313.843         1
         1        73        28       120 0.0991098         6   285.312         1
         1        72        28       120 0.0900998         6   259.374         1
         1        71        28       120 0.0819089         6   235.795         1
         1        70        28       120 0.0744627         6   214.359         1
         1        69        28       120 0.0676933         6   194.872         1
         1        68        28       120 0.0615394         6   177.156         1
         1        67        28       120 0.0676933         6   194.872         1
         1        66        28       120 0.0744627         6   214.359         1
         1        65        28       120 0.0819089         6   235.795         1
         1        64        28       120 0.0900998         6   259.374         1
         1        63        28       120 0.0991098         6   285.312         1
         1        62        28       120  0.109021         6   313.843         1
         1        61        28       120  0.119923         6   345.227         1
         1        60        28       120  0.131915         6    379.75         1
         1        59        28       120 0.0394981         6   113.705         1
         1        78        29       120  0.101395         6   291.889         1
         1        77        29       120  0.131915         6    379.75         1
         1        76        29       120  0.119923         6   345.227         1
         1        75        29       120  0.109021         6   313.843         1
         1        74        29       120 0.0991098         6   285.312         1
         1        73        29       120 0.0900998         6   259.374         1
         1        72        29       120 0.0819089         6   235.795         1
         1        71        29       120 0.0744627         6   214.359         1
         1        70        29       120 0.0676933         6   194.872         1
         1        69        29       120 0.0615394         6   177.156         1
         1        68        29       120 0.0559449         6   161.051         1
         1        67        29       120 0.0615394         6   177.156         1
         1        66        29       120 0.0676933         6   194.872         1
         1        65        29       120 0.0744627         6   214.359         1
         1        64        29       120 0.0819089         6   235.795         1
         1        63        29       120 0.0900998         6   259.374         1
         1        62        29       120 0.0991098         6   285.312         1
         1        61        29       120  0.109021         6   313.843         1
         1        60        29       120  0.119923         6   345.227         1
         1        59        29       120   0.10192         6   293.402         1
         1        58        29       120 0.000166518         6  0.479361         1
         1        78        30       120   0.11375         6   327.458         1
         1        77        30       120  0.119923         6   345.227         1
         1        76        30       120  0.109021         6   313.843         1
         1        75        30       120 0.0991098         6   285.312         1
         1        74        30       120 0.0900998         6   259.374         1
         1        73        30       120 0.0819089         6   235.795         1
         1        72        30       120 0.0744627         6   214.359         1
         1        71        30       120 0.0676933         6   194.872         1
         1        70        30       120 0.0615394         6   177.156         1
         1        69        30       120 0.0559449         6   161.051         1
         1        68        30       120  0.050859         6    146.41         1
         1        67        30       120 0.0559449         6   161.051         1
         1        66        30       120 0.0615394         6   177.156         1
         1        65        30       120 0.0676933         6   194.872         1
         1        64        30       120 0.0744627         6   214.359         1
         1        63        30       120 0.0819089         6   235.795         1
         1        62        30       120 0.0900998         6   259.374         1
         1        61        30       120 0.0991098         6   285.312         1
         1        60        30       120  0.109021         6   313.843         1
         1        59        30       120  0.119923         6   345.227         1
         1        58        30       120 0.0329871         6   94.9613         1
         1        79        31       120 0.00286827         6   8.25701         1
         1        78        31       120  0.118423         6   34 0.911         1
         1        77        31       120  0.109021         6   313.843         1
         1        76        31       120 0.0991098         6   285.312         1
         1        75        31       120 0.0900998         6   259.374         1
         1        74        31       120 0.0819089         6   235.795         1
         1        73        31       120 0.0744627         6   214.359         1
         1        72        31       120 0.0676933         6   194.872         1
         1        71        31       120 0.0615394         6   177.156         1
         1        70        31       120 0.0559449         6   161.051         1
         1        69        31       120  0.050859         6    146.41         1
         1        68        31       120 0.0462355         6     133.1         1
         1        67        31       120  0.050859         6    146.41         1
         1        66        31       120 0.0559449         6   161.051         1
         1        65        31       120 0.0615394         6   177.156         1
         1        64        31       120 0.0676933         6   194.872         1
         1        63        31       120 0.0744627         6   214.359         1
         1        62        31       120 0.0819089         6   235.795         1
         1        61        31       120 0.0900998         6   259.374         1
         1        60        31       120 0.0991098         6   285.312         1
         1        59        31       120  0.109021         6   313.843         1
         1        58        31       120 0.0796609         6   229.323         1
         1        79        32       120 0.0160232         6   46.1266         1
         1        78        32       120  0.109021         6   313.843         1
         1        77        32       120 0.0991098         6   285.312         1
         1        76        32       120 0.0900998         6   259.374         1
         1        75        32       120 0.0819089         6   235.795         1
         1        74        32       120 0.0744627         6   214.359         1
         1        73        32       120 0.0676933         6   194.872         1
         1        72        32       120 0.0615394         6   177.156         1
         1        71        32       120 0.0559449         6   161.051         1
         1        70        32       120  0.050859         6    146.41         1
         1        69        32       120 0.0462355         6     133.1         1
         1        68        32       120 0.0420322         6       121         1
         1        67        32       120 0.0462355         6     133.1         1
         1        66        32       120  0.050859         6    146.41         1
         1        65        32       120 0.0559449         6   161.051         1
         1        64        32       120 0.0615394         6   177.156         1
         1        63        32       120 0.0676933         6   194.872         1
         1        62        32       120 0.0744627         6   214.359         1
         1        61        32       120 0.0819089         6   235.795         1
         1        60        32       120 0.0900998         6   259.374         1
         1        59        32       120 0.0991098         6   285.312         1
         1        58        32       120  0.106105         6    305.45         1
         1        57        32       120 0.00736536         6    21.203         1
         1        79        33       120 0.0267804         6   77.0938         1
         1        78        33       120 0.0991098         6   285.312         1
         1        77        33       120 0.0900998         6   259.374         1
         1        76        33       120 0.0819089         6   235.795         1
         1        75        33       120 0.0744627         6   214.359         1
         1        74        33       120 0.0676933         6   194.872         1
         1        73        33       120 0.0615394         6   177.156         1
         1        72        33       120 0.0559449         6   161.051         1
         1        71        33       120  0.050859         6    146.41         1
         1        70        33       120 0.0462355         6     133.1         1
         1        69        33       120 0.0420322         6       121         1
         1        68        33       120 0.0382111         6       110         1
         1        67        33       120 0.0420322         6       121         1
         1        66        33       120 0.0462355         6     133.1         1
         1        65        33       120  0.050859         6    146.41         1
         1        64        33       120 0.0559449         6   161.051         1
         1        63        33       120 0.0615394         6   177.156         1
         1        62        33       120 0.0676933         6   194.872         1
         1        61        33       120 0.0744627         6   214.359         1
         1        60        33       120 0.0819089         6   235.795         1
         1        59        33       120 0.0900998         6   259.374         1
         1        58        33       120 0.0991098         6   285.312         1
         1        57        33       120 0.0379725         6   109.313         1
         1        79        34       120 0.0344399         6   99.1436         1
         1        78        34       120 0.0900998         6   259.374         1
         1        77        34       120 0.0819089         6   235.795         1
         1        76        34       120 0.0744627         6   214.359         1
         1        75        34       120 0.0676933         6   194.872         1
         1        74        34       120 0.0615394         6   177.156         1
         1        73        34       120 0.0559449         6   161.051         1
         1        72        34       120  0.050859         6    146.41         1
         1        71        34       120 0.0462355         6     133.1         1
         1        70        34       120 0.0420322         6       121         1
         1        69        34       120 0.0382111         6       110         1
         1        68        34       120 0.0347374         6       100         1
         1        67        34       120 0.0382111         6       110         1
         1        66        34       120 0.0420322         6       121         1
         1        65        34       120 0.0462355         6     133.1         1
         1        64        34       120  0.050859         6    146.41         1
         1        63        34       120 0.0559449         6   161.051         1
         1        62        34       120 0.0615394         6   177.156         1
         1        61        34       120 0.0676933         6   194.872         1
         1        60        34       120 0.0744627         6   214.359         1
         1        59        34       120 0.0819089         6   235.795         1
         1        58        34       120 0.0900998         6   259.374         1
         1        57        34       120 0.0625594         6   18 0.092         1
         1        79        35       120 0.0500611         6   144.113         1
         1        78        35       120 0.0991098         6   285.312         1
         1        77        35       120 0.0900998         6   259.374         1
         1        76        35       120 0.0819089         6   235.795         1
         1        75        35       120 0.0744627         6   214.359         1
         1        74        35       120 0.0676933         6   194.872         1
         1        73        35       120 0.0615394         6   177.156         1
         1        72        35       120 0.0559449         6   161.051         1
         1        71        35       120  0.050859         6    146.41         1
         1        70        35       120 0.0462355         6     133.1         1
         1        69        35       120 0.0420322         6       121         1
         1        68        35       120 0.0382111         6       110         1
         1        67        35       120 0.0420322         6       121         1
         1        66        35       120 0.0462355         6     133.1         1
         1        65        35       120  0.050859         6    146.41         1
         1        64        35       120 0.0559449         6   161.051         1
         1        63        35       120 0.0615394         6   177.156         1
         1        62        35       120 0.0676933         6   194.872         1
         1        61        35       120 0.0744627         6   214.359         1
         1        60        35       120 0.0819089         6   235.795         1
         1        59        35       120 0.0900998         6   259.374         1
         1        58        35       120 0.0991098         6   285.312         1
         1        57        35       120 0.0989441         6   284.835         1
         1        56        35       120 0.000714086         6   2.05567         1
         1        79        36       120 0.0826819         6    238.02         1
         1        78        36       120  0.109021         6   313.843         1
         1        77        36       120 0.0991098         6   285.312         1
         1        76        36       120 0.0900998         6   259.374         1
         1        75        36       120 0.0819089         6   235.795         1
         1        74        36       120 0.0744627         6   214.359         1
         1        73        36       120 0.0676933         6   194.872         1
         1        72        36       120 0.0615394         6   177.156         1
         1        71        36       120 0.0559449         6   161.051         1
         1        70        36       120  0.050859         6    146.41         1
         1        69        36       120 0.0462355         6     133.1         1
         1        68        36       120 0.0420322         6       121         1
         1        67        36       120 0.0462355         6     133.1         1
         1        66        36       120  0.050859         6    146.41         1
         1        65        36       120 0.0559449         6   161.051         1
         1        64        36       120 0.0615394         6   177.156         1
         1        63        36       120 0.0676933         6   194.872         1
         1        62        36       120 0.0744627         6   214.359         1
         1        61        36       120 0.0819089         6   235.795         1
         1        60        36       120 0.0900998         6   259.374         1
         1        59        36       120 0.0991098         6   285.312         1
         1        58        36       120  0.109021         6   313.843         1
         1        57        36       120  0.119923         6   345.227         1
         1        56        36       120 0.0265031         6   76.2955         1
         1        80        37       120 0.00322002         6   9.26962         1
         1        79        37       120  0.125023         6   359.909         1
         1        78        37       120  0.119923         6   345.227         1
         1        77        37       120  0.109021         6   313.843         1
         1        76        37       120 0.0991098         6   285.312         1
         1        75        37       120 0.0900998         6   259.374         1
         1        74        37       120 0.0819089         6   235.795         1
         1        73        37       120 0.0744627         6   214.359         1
         1        72        37       120 0.0676933         6   194.872         1
         1        71        37       120 0.0615394         6   177.156         1
         1        70        37       120 0.0559449         6   161.051         1
         1        69        37       120  0.050859         6    146.41         1
         1        68        37       120 0.0462355         6     133.1         1
         1        67        37       120  0.050859         6    146.41         1
         1        66        37       120 0.0559449         6   161.051         1
         1        65        37       120 0.0615394         6   177.156         1
         1        64        37       120 0.0676933         6   194.872         1
         1        63        37       120 0.0744627         6   214.359         1
         1        62        37       120 0.0819089         6   235.795         1
         1        61        37       120 0.0900998         6   259.374         1
         1        60        37       120 0.0991098         6   285.312         1
         1        59        37       120  0.109021         6   313.843         1
         1        58        37       120  0.119923         6   345.227         1
         1        57        37       120  0.131915         6    379.75         1
         1        56        37       120 0.0530003         6   152.574         1
         1        80        38       120 0.0410847         6   118.272         1
         1        79        38       120  0.145107         6   417.725         1
         1        78        38       120  0.131915         6    379.75         1
         1        77        38       120  0.119923         6   345.227         1
         1        76        38       120  0.109021         6   313.843         1
         1        75        38       120 0.0991098         6   285.312         1
         1        74        38       120 0.0900998         6   259.374         1
         1        73        38       120 0.0819089         6   235.795         1
         1        72        38       120 0.0744627         6   214.359         1
         1        71        38       120 0.0676933         6   194.872         1
         1        70        38       120 0.0615394         6   177.156         1
         1        69        38       120 0.0559449         6   161.051         1