# DIS package for MODFLOW-2000 generated by Flopy 3.9.3
         1       100       128         1         4         1
  0
INTERNAL               1     (FREE) -1 #delr                          
   3.979437E+01   3.979437E+01   3.979437E+01   3.979437E+01   3.979437E+01   3.979437E+01   3.979437E+01   3.979437E+01   3.979437E+01   3.979437E+01   3.979437E+01   3.979437E+01   3.979437E+01   3.979437E+01   3.979437E+01   3.979437E+01   3.979437E+01   3.979437E+01   3.979437E+01   3.797498E+01   3.452271E+01   3.138428E+01   2.853117E+01   2.593742E+01   2.357948E+01   2.143589E+01   1.948717E+01   1.771561E+01   1.610510E+01   1.464100E+01   1.331000E+01   1.210000E+01   1.100000E+01   1.000000E+01   1.100000E+01   1.210000E+01   1.331000E+01   1.464100E+01   1.610510E+01   1.771561E+01   1.948717E+01   2.143589E+01   2.357948E+01   2.593742E+01   2.669827E+01   2.669827E+01   2.669827E+01   2.669827E+01   2.669827E+01   2.669827E+01   2.669827E+01   2.669827E+01   2.669827E+01   2.669827E+01   2.593742E+01   2.357948E+01   2.143589E+01   1.948717E+01   1.771561E+01   1.610510E+01   1.464100E+01   1.331000E+01   1.210000E+01   1.100000E+01   1.000000E+01   1.100000E+01   1.210000E+01   1.331000E+01   1.464100E+01   1.610510E+01   1.771561E+01   1.948717E+01   1.967335E+01   1.967335E+01   1.967335E+01   1.967335E+01   1.967335E+01   1.967335E+01   1.967335E+01   1.967335E+01   1.948717E+01   1.771561E+01   1.610510E+01   1.464100E+01   1.331000E+01   1.210000E+01   1.100000E+01   1.000000E+01   1.100000E+01   1.210000E+01   1.331000E+01   1.464100E+01   1.610510E+01   1.771561E+01   1.948717E+01   2.143589E+01   2.357948E+01   2.593742E+01   2.853117E+01   3.138428E+01   3.452271E+01   3.797498E+01   3.954380E+01   3.954380E+01   3.954380E+01   3.954380E+01   3.954380E+01   3.954380E+01   3.954380E+01   3.954380E+01   3.954380E+01   3.954380E+01   3.954380E+01   3.954380E+01   3.954380E+01   3.954380E+01   3.954380E+01   3.954380E+01   3.954380E+01   3.954380E+01   3.954380E+01   3.954380E+01   3.954380E+01   3.954380E+01   3.954380E+01   3.954380E+01   3.954380E+01   3.954380E+01
INTERNAL               1     (FREE) -1 #delc                          
   3.952661E+01   3.952661E+01   3.952661E+01   3.952661E+01   3.952661E+01   3.952661E+01   3.952661E+01   3.952661E+01   3.952661E+01   3.952661E+01   3.952661E+01   3.952661E+01   3.952661E+01   3.797498E+01   3.452271E+01   3.138428E+01   2.853117E+01   2.593742E+01   2.357948E+01   2.143589E+01   1.948717E+01   1.771561E+01   1.610510E+01   1.464100E+01   1.331000E+01   1.210000E+01   1.100000E+01   1.000000E+01   1.100000E+01   1.142233E+01   1.142233E+01   1.142233E+01   1.142233E+01   1.100000E+01   1.000000E+01   1.100000E+01   1.210000E+01   1.331000E+01   1.464100E+01   1.610510E+01   1.771561E+01   1.948717E+01   2.143589E+01   2.357948E+01   2.593742E+01   2.853117E+01   3.138428E+01   3.297219E+01   3.297219E+01   3.297219E+01   3.297219E+01   3.297219E+01   3.297219E+01   3.297219E+01   3.297219E+01   3.138428E+01   2.853117E+01   2.593742E+01   2.357948E+01   2.143589E+01   1.948717E+01   1.771561E+01   1.610510E+01   1.464100E+01   1.331000E+01   1.210000E+01   1.100000E+01   1.000000E+01   1.100000E+01   1.210000E+01   1.331000E+01   1.464100E+01   1.610510E+01   1.771561E+01   1.948717E+01   2.143589E+01   2.357948E+01   2.593742E+01   2.853117E+01   3.138428E+01   3.452271E+01   3.797498E+01   3.897243E+01   3.897243E+01   3.897243E+01   3.897243E+01   3.897243E+01   3.897243E+01   3.897243E+01   3.897243E+01   3.897243E+01   3.897243E+01   3.897243E+01   3.897243E+01   3.897243E+01   3.897243E+01   3.897243E+01   3.897243E+01   3.897243E+01   3.897243E+01
INTERNAL               1     (FREE) -1 #model_top                     
   1.000000E-04   1.000000E-04   1.000000E-04   1.000000E-04   1.000000E-04   1.000000E-04   1.000000E-04   1.000000E-04   1.000000E-04   1.000000E-04   1.000000E-04   1.000000E-04   1.000000E-04   1.000000E-04   1.000000E-04   1.000000E-04   1.000000E-04   1.000000E-04   1.000000E-04   1.000000E-04   1.000000E-04   1.000000E-04   1.000000E-04   1.000000E-04   1.000000E-04   1.000000E-04   1.000000E-04   1.000000E-04   1.000000E-04   1.000000E-04   1.000000E-04   1.000000E-04   1.000000E-04   1.000000E-04   1.000000E-04   1.000000E-04   1.000000E-04   1.000000E-04   1.000000E-04   1.000000E-04   1.000000E-04   1.000000E-04   1.000000E-04   1.000000E-04   1.000000E-04   1.000000E-04   1.000000E-04   1.000000E-04   1.000000E-04   1.000000E-04   1.000000E-04   1.000000E-04   1.000000E-04   1.000000E-04   1.000000E-04   1.000000E-04   1.000000E-04   1.000000E-04   1.000000E-04   1.000000E-04   1.000000E-04   1.000000E-04   1.000000E-04   1.000000E-04   1.000000E-04   1.000000E-04   1.000000E-04   1.000000E-04   1.000000E-04   1.000000E-04   1.000000E-04   1.000000E-04   1.000000E-04   1.000000E-04   1.000000E-04   1.000000E-04   1.000000E-04   1.000000E-04   1.000000E-04   1.000000E-04   1.000000E-04   1.000000E-04   1.000000E-04   1.000000E-04   1.000000E-04   1.000000E-04   1.000000E-04   1.000000E-04   1.000000E-04   1.000000E-04   1.000000E-04   1.000000E-04   1.000000E-04   1.000000E-04   1.000000E-04   1.000000E-04   1.000000E-04   1.000000E-04   1.000000E-04   1.000000E-04   1.000000E-04   1.000000E-04   1.000000E-04   1.000000E-04   1.000000E-04   1.000000E-04   1.000000E-04   1.000000E-04   1.000000E-04   1.000000E-04   1.000000E-04   1.000000E-04   1.000000E-04   1.000000E-04   1.000000E-04   1.000000E-04   1.000000E-04   1.000000E-04   1.000000E-04   1.000000E-04   1.000000E-04   1.000000E-04   1.000000E-04   1.000000E-04   1.000000E-04   1.000000E-04   1.000000E-04   1.000000E-04
   1.000000E-04   1.000000E-04   1.000000E-04   1.000000E-04   1.000000E-04   1.000000E-04   1.000000E-04   1.000000E-04   1.000000E-04   1.000000E-04   1.000000E-04   1.000000E-04   1.000000E-04   1.000000E-04   1.000000E-04   1.000000E-04   1.000000E-04   1.000000E-04   1.000000E-04   1.000000E-04   1.000000E-04   1.000000E-04   1.000000E-04   1.000000E-04   1.000000E-04   1.000000E-04   1.000000E-04   1.000000E-04   1.000000E-04   1.000000E-04   1.000000E-04   1.000000E-04   1.000000E-04   1.000000E-04   1.000000E-04   1.000000E-04   1.000000E-04   1.000000E-04   1.000000E-04   1.000000E-04   1.000000E-04   1.000000E-04   1.000000E-04   1.000000E-04   1.000000E-04   1.000000E-04   1.000000E-04   1.000000E-04   1.000000E-04   1.000000E-04   1.000000E-04   1.000000E-04   1.000000E-04   1.000000E-04   1.000000E-04   1.000000E-04   1.000000E-04   1.000000E-04   1.000000E-04   1.000000E-04   1.000000E-04   1.000000E-04   1.000000E-04   1.000000E-04   1.000000E-04   1.000000E-04   1.000000E-04   1.000000E-04   1.200000E+02   1.200000E+02   1.200000E+02   1.200000E+02   1.200000E+02   1.200000E+02   1.200000E+02   1.200000E+02   1.200000E+02   1.200000E+02   1.200000E+02   1.200000E+02   1.200000E+02   1.200000E+02   1.200000E+02   1.200000E+02   1.200000E+02   1.200000E+02   1.000000E-04   1.000000E-04   1.000000E-04   1.000000E-04   1.000000E-04   1.000000E-04   1.000000E-04   1.000000E-04   1.000000E-04   1.000000E-04   1.000000E-04   1.000000E-04   1.000000E-04   1.000000E-04   1.000000E-04   1.000000E-04   1.000000E-04   1.000000E-04   1.000000E-04   1.000000E-04   1.000000E-04   1.000000E-04   1.000000E-04   1.000000E-04   1.000000E-04   1.000000E-04   1.000000E-04   1.000000E-04   1.000000E-04   1.000000E-04   1.000000E-04   1.000000E-04   1.000000E-04   1.000000E-04   1.000000E-04   1.000000E-04   1.000000E-04   1.000000E-04   1.000000E-04   1.000000E-04   1.000000E-04   1.000000E-04
   1.000000E-04   1.000000E-04   1.000000E-04   1.000000E-04   1.000000E-04   1.000000E-04   1.000000E-04   1.000000E-04   1.000000E-04   1.000000E-04   1.000000E-04   1.000000E-04   1.000000E-04   1.000000E-04   1.000000E-04   1.000000E-04   1.000000E-04   1.000000E-04   1.000000E-04   1.000000E-04   1.000000E-04   1.000000E-04   1.000000E-04   1.000000E-04   1.000000E-04   1.000000E-04   1.000000E-04   1.000000E-04   1.000000E-04   1.000000E-04   1.000000E-04   1.000000E-04   1.000000E-04   1.000000E-04   1.000000E-04   1.000000E-04   1.000000E-04   1.000000E-04   1.000000E-04   1.000000E-04   1.000000E-04   1.000000E-04   1.000000E-04   1.000000E-04   1.000000E-04   1.000000E-04   1.000000E-04   1.000000E-04   1.000000E-04   1.000000E-04   1.000000E-04   1.000000E-04   1.000000E-04   1.000000E-04   1.000000E-04   1.000000E-04   1.000000E-04   1.000000E-04   1.000000E-04   1.000000E-04   1.200000E+02   1.200000E+02   1.200000E+02   1.200000E+02   1.200000E+02   1.200000E+02   1.200000E+02   1.200000E+02   1.200000E+02   1.200000E+02   1.200000E+02   1.200000E+02   1.200000E+02   1.200000E+02   1.200000E+02   1.200000E+02   1.200000E+02   1.200000E+02   1.200000E+02   1.200000E+02   1.200000E+02   1.200000E+02   1.200000E+02   1.200000E+02   1.200000E+02   1.200000E+02   1.200000E+02   1.200000E+02   1.200000E+02   1.200000E+02   1.200000E+02   1.000000E-04   1.000000E-04   1.000000E-04   1.000000E-04   1.000000E-04   1.000000E-04   1.000000E-04   1.000000E-04   1.000000E-04   1.000000E-04   1.000000E-04   1.000000E-04   1.000000E-04   1.000000E-04   1.000000E-04   1.000000E-04   1.000000E-04   1.000000E-04   1.000000E-04   1.000000E-04   1.000000E-04   1.000000E-04   1.000000E-04   1.000000E-04   1.000000E-04   1.000000E-04   1.000000E-04   1.000000E-04   1.000000E-04   1.000000E-04   1.000000E-04   1.000000E-04   1.000000E-04   1.000000E-04   1.000000E-04   1.000000E-04   1.000000E-04
   1.000000E-04   1.000000E-04   1.000000E-04   1.000000E-04   1.000000E-04   1.000000E-04   1.000000E-04   1.000000E-04   1.000000E-04   1.000000E-04   1.000000E-04   1.000000E-04   1.000000E-04   1.000000E-04   1.000000E-04   1.000000E-04   1.000000E-04   1.000000E-04   1.000000E-04   1.000000E-04   1.000000E-04   1.000000E-04   1.000000E-04   1.000000E-04   1.000000E-04   1.000000E-04   1.000000E-04   1.000000E-04   1.000000E-04   1.000000E-04   1.000000E-04   1.000000E-04   1.000000E-04   1.000000E-04   1.000000E-04   1.000000E-04   1.000000E-04   1.000000E-04   1.000000E-04   1.000000E-04   1.000000E-04   1.000000E-04   1.000000E-04   1.000000E-04   1.000000E-04   1.000000E-04   1.000000E-04   1.000000E-04   1.000000E-04   1.000000E-04   1.000000E-04   1.000000E-04   1.000000E-04   1.000000E-04   1.000000E-04   1.200000E+02   1.200000E+02   1.200000E+02   1.200000E+02   1.200000E+02   1.200000E+02   1.200000E+02   1.200000E+02   1.200000E+02   1.200000E+02   1.200000E+02   1.200000E+02   1.200000E+02   1.200000E+02   1.200000E+02   1.200000E+02   1.200000E+02   1.200000E+02   1.200000E+02   1.200000E+02   1.200000E+02   1.200000E+02   1.200000E+02   1.200000E+02   1.200000E+02   1.200000E+02   1.200000E+02   1.200000E+02   1.200000E+02   1.200000E+02   1.200000E+02   1.200000E+02   1.200000E+02   1.200000E+02   1.200000E+02   1.200000E+02   1.200000E+02   1.200000E+02   1.200000E+02   1.000000E-04   1.000000E-04   1.000000E-04   1.000000E-04   1.000000E-04   1.000000E-04   1.000000E-04   1.000000E-04   1.000000E-04   1.000000E-04   1.000000E-04   1.000000E-04   1.000000E-04   1.000000E-04   1.000000E-04   1.000000E-04   1.000000E-04   1.000000E-04   1.000000E-04   1.000000E-04   1.000000E-04   1.000000E-04   1.000000E-04   1.000000E-04   1.000000E-04   1.000000E-04   1.000000E-04   1.000000E-04   1.000000E-04   1.000000E-04   1.000000E-04   1.000000E-04   1.000000E-04   1.000000E-04
   1.000000E-04   1.000000E-04   1.000000E-04   1.000000E-04   1.000000E-04   1.000000E-04   1.000000E-04   1.000000E-04   1.000000E-04   1.000000E-04   1.000000E-04   1.000000E-04   1.000000E-04   1.000000E-04   1.000000E-04   1.000000E-04   1.000000E-04   1.000000E-04   1.000000E-04   1.000000E-04   1.000000E-04   1.000000E-04   1.000000E-04   1.000000E-04   1.000000E-04   1.000000E-04   1.000000E-04   1.000000E-04   1.000000E-04   1.000000E-04   1.000000E-04   1.000000E-04   1.000000E-04   1.000000E-04   1.000000E-04   1.000000E-04   1.000000E-04   1.000000E-04   1.000000E-04   1.000000E-04   1.000000E-04   1.000000E-04   1.000000E-04   1.000000E-04   1.000000E-04   1.000000E-04   1.000000E-04   1.000000E-04   1.000000E-04   1.000000E-04   1.000000E-04   1.000000E-04   1.200000E+02   1.200000E+02   1.200000E+02   1.200000E+02   1.200000E+02   1.200000E+02   1.200000E+02   1.200000E+02   1.200000E+02   1.200000E+02   1.200000E+02   1.200000E+02   1.200000E+02   1.200000E+02   1.200000E+02   1.200000E+02   1.200000E+02   1.200000E+02   1.200000E+02   1.200000E+02   1.200000E+02   1.200000E+02   1.200000E+02   1.200000E+02   1.200000E+02   1.200000E+02   1.200000E+02   1.200000E+02   1.200000E+02   1.200000E+02   1.200000E+02   1.200000E+02   1.200000E+02   1.200000E+02   1.200000E+02   1.200000E+02   1.200000E+02   1.200000E+02   1.200000E+02   1.200000E+02   1.200000E+02   1.200000E+02   1.200000E+02   1.200000E+02   1.200000E+02   1.000000E-04   1.000000E-04   1.000000E-04   1.000000E-04   1.000000E-04   1.000000E-04   1.000000E-04   1.000000E-04   1.000000E-04   1.000000E-04   1.000000E-04   1.000000E-04   1.000000E-04   1.000000E-04   1.000000E-04   1.000000E-04   1.000000E-04   1.000000E-04   1.000000E-04   1.000000E-04   1.000000E-04   1.000000E-04   1.000000E-04   1.000000E-04   1.000000E-04   1.000000E-04   1.000000E-04   1.000000E-04   1.000000E-04   1.000000E-04   1.000000E-04
   1.000000E-04   1.000000E-04   1.000000E-04   1.000000E-04   1.000000E-04   1.000000E-04   1.000000E-04   1.000000E-04   1.000000E-04   1.000000E-04   1.000000E-04   1.000000E-04   1.000000E-04   1.000000E-04   1.000000E-04   1.000000E-04   1.000000E-04   1.000000E-04   1.000000E-04   1.000000E-04   1.000000E-04   1.000000E-04   1.000000E-04   1.000000E-04   1.000000E-04   1.000000E-04   1.000000E-04   1.000000E-04   1.000000E-04   1.000000E-04   1.000000E-04   1.000000E-04   1.000000E-04   1.000000E-04   1.000000E-04   1.000000E-04   1.000000E-04   1.000000E-04   1.000000E-04   1.000000E-04   1.000000E-04   1.000000E-04   1.000000E-04   1.000000E-04   1.000000E-04   1.000000E-04   1.000000E-04   1.000000E-04   1.200000E+02   1.200000E+02   1.200000E+02   1.200000E+02   1.200000E+02   1.200000E+02   1.200000E+02   1.200000E+02   1.200000E+02   1.200000E+02   1.200000E+02   1.200000E+02   1.200000E+02   1.200000E+02   1.200000E+02   1.200000E+02   1.200000E+02   1.200000E+02   1.200000E+02   1.200000E+02   1.200000E+02   1.200000E+02   1.200000E+02   1.200000E+02   1.200000E+02   1.200000E+02   1.200000E+02   1.200000E+02   1.200000E+02   1.200000E+02   1.200000E+02   1.200000E+02   1.200000E+02   1.200000E+02   1.200000E+02   1.200000E+02   1.200000E+02   1.200000E+02   1.200000E+02   1.200000E+02   1.200000E+02   1.200000E+02   1.200000E+02   1.200000E+02   1.200000E+02   1.200000E+02   1.200000E+02   1.200000E+02   1.200000E+02   1.200000E+02   1.200000E+02   1.000000E-04   1.000000E-04   1.000000E-04   1.000000E-04   1.000000E-04   1.000000E-04   1.000000E-04   1.000000E-04   1.000000E-04   1.000000E-04   1.000000E-04   1.000000E-04   1.000000E-04   1.000000E-04   1.000000E-04   1.000000E-04   1.000000E-04   1.000000E-04   1.000000E-04   1.000000E-04   1.000000E-04   1.000000E-04   1.000000E-04   1.000000E-04   1.000000E-04   1.000000E-04   1.000000E-04   1.000000E-04   1.000000E-04
   1.000000E-04   1.000000E-04   1.000000E-04   1.000000E-04   1.000000E-04   1.000000E-04   1.000000E-04   1.000000E-04   1.000000E-04   1.000000E-04   1.000000E-04   1.000000E-04   1.000000E-04   1.000000E-04   1.000000E-04   1.000000E-04   1.000000E-04   1.000000E-04   1.000000E-04   1.000000E-04   1.000000E-04   1.000000E-04   1.000000E-04   1.000000E-04   1.000000E-04   1.000000E-04   1.000000E-04   1.000000E-04   1.000000E-04   1.000000E-04   1.000000E-04   1.000000E-04   1.000000E-04   1.000000E-04   1.000000E-04   1.000000E-04   1.000000E-04   1.000000E-04   1.000000E-04   1.000000E-04   1.000000E-04   1.000000E-04   1.000000E-04   1.000000E-04   1.000000E-04   1.200000E+02   1.200000E+02   1.200000E+02   1.200000E+02   1.200000E+02   1.200000E+02   1.200000E+02   1.200000E+02   1.200000E+02   1.200000E+02   1.200000E+02   1.200000E+02   1.200000E+02   1.200000E+02   1.200000E+02   1.200000E+02   1.200000E+02   1.200000E+02   1.200000E+02   1.200000E+02   1.200000E+02   1.200000E+02   1.200000E+02   1.200000E+02   1.200000E+02   1.200000E+02   1.200000E+02   1.200000E+02   1.200000E+02   1.200000E+02   1.200000E+02   1.200000E+02   1.200000E+02   1.200000E+02   1.200000E+02   1.200000E+02   1.200000E+02   1.200000E+02   1.200000E+02   1.200000E+02   1.200000E+02   1.200000E+02   1.200000E+02   1.200000E+02   1.200000E+02   1.200000E+02   1.200000E+02   1.200000E+02   1.200000E+02   1.200000E+02   1.200000E+02   1.200000E+02   1.200000E+02   1.200000E+02   1.200000E+02   1.200000E+02   1.000000E-04   1.000000E-04   1.000000E-04   1.000000E-04   1.000000E-04   1.000000E-04   1.000000E-04   1.000000E-04   1.000000E-04   1.000000E-04   1.000000E-04   1.000000E-04   1.000000E-04   1.000000E-04   1.000000E-04   1.000000E-04   1.000000E-04   1.000000E-04   1.000000E-04   1.000000E-04   1.000000E-04   1.000000E-04   1.000000E-04   1.000000E-04   1.000000E-04   1.000000E-04   1.000000E-04
   1.000000E-04   1.000000E-04   1.000000E-04   1.000000E-04   1.000000E-04   1.000000E-04   1.000000E-04   1.000000E-04   1.000000E-04   1.000000E-04   1.000000E-04   1.000000E-04   1.000000E-04   1.000000E-04   1.000000E-04   1.000000E-04   1.000000E-04   1.000000E-04   1.000000E-04   1.000000E-04   1.000000E-04   1.000000E-04   1.000000E-04   1.000000E-04   1.000000E-04   1.000000E-04   1.000000E-04   1.000000E-04   1.000000E-04   1.000000E-04   1.000000E-04   1.000000E-04   1.000000E-04   1.000000E-04   1.000000E-04   1.000000E-04   1.000000E-04   1.000000E-04   1.000000E-04   1.000000E-04   1.000000E-04   1.200000E+02   1.200000E+02   1.200000E+02   1.200000E+02   1.200000E+02   1.200000E+02   1.200000E+02   1.200000E+02   1.200000E+02   1.200000E+02   1.200000E+02   1.200000E+02   1.200000E+02   1.200000E+02   1.200000E+02   1.200000E+02   1.200000E+02   1.200000E+02   1.200000E+02   1.200000E+02   1.200000E+02   1.200000E+02   1.200000E+02   1.200000E+02   1.200000E+02   1.200000E+02   1.200000E+02   1.200000E+02   1.200000E+02   1.200000E+02   1.200000E+02   1.200000E+02   1.200000E+02   1.200000E+02   1.200000E+02   1.200000E+02   1.200000E+02   1.200000E+02   1.200000E+02   1.200000E+02   1.200000E+02   1.200000E+02   1.200000E+02   1.200000E+02   1.200000E+02   1.200000E+02   1.200000E+02   1.200000E+02   1.200000E+02   1.200000E+02   1.200000E+02   1.200000E+02   1.200000E+02   1.200000E+02   1.200000E+02   1.200000E+02   1.200000E+02   1.200000E+02   1.200000E+02   1.200000E+02   1.200000E+02   1.000000E-04   1.000000E-04   1.000000E-04   1.000000E-04   1.000000E-04   1.000000E-04   1.000000E-04   1.000000E-04   1.000000E-04   1.000000E-04   1.000000E-04   1.000000E-04   1.000000E-04   1.000000E-04   1.000000E-04   1.000000E-04   1.000000E-04   1.000000E-04   1.000000E-04   1.000000E-04   1.000000E-04   1.000000E-04   1.000000E-04   1.000000E-04   1.000000E-04   1.000000E-04
   1.000000E-04   1.000000E-04   1.000000E-04   1.000000E-04   1.000000E-04   1.000000E-04   1.000000E-04   1.000000E-04   1.000000E-04   1.000000E-04   1.000000E-04   1.000000E-04   1.000000E-04   1.000000E-04   1.000000E-04   1.000000E-04   1.000000E-04   1.000000E-04   1.000000E-04   1.000000E-04   1.000000E-04   1.000000E-04   1.000000E-04   1.000000E-04   1.000000E-04   1.000000E-04   1.000000E-04   1.000000E-04   1.000000E-04   1.000000E-04   1.000000E-04   1.000000E-04   1.000000E-04   1.000000E-04   1.200000E+02   1.200000E+02   1.200000E+02   1.200000E+02   1.200000E+02   1.200000E+02   1.200000E+02   1.200000E+02   1.200000E+02   1.200000E+02   1.200000E+02   1.200000E+02   1.200000E+02   1.200000E+02   1.200000E+02   1.200000E+02   1.200000E+02   1.200000E+02   1.200000E+02   1.200000E+02   1.200000E+02   1.200000E+02   1.200000E+02   1.200000E+02   1.200000E+02   1.200000E+02   1.200000E+02   1.200000E+02   1.200000E+02   1.200000E+02   1.200000E+02   1.200000E+02   1.200000E+02   1.200000E+02   1.200000E+02   1.200000E+02   1.200000E+02   1.200000E+02   1.200000E+02   1.200000E+02   1.200000E+02   1.200000E+02   1.200000E+02   1.200000E+02   1.200000E+02   1.200000E+02   1.200000E+02   1.200000E+02   1.200000E+02   1.200000E+02   1.200000E+02   1.200000E+02   1.200000E+02   1.200000E+02   1.200000E+02   1.200000E+02   1.200000E+02   1.200000E+02   1.200000E+02   1.200000E+02   1.200000E+02   1.200000E+02   1.200000E+02   1.200000E+02   1.200000E+02   1.200000E+02   1.200000E+02   1.200000E+02   1.200000E+02   1.200000E+02   1.000000E-04   1.000000E-04   1.000000E-04   1.000000E-04   1.000000E-04   1.000000E-04   1.000000E-04   1.000000E-04   1.000000E-04   1.000000E-04   1.000000E-04   1.000000E-04   1.000000E-04   1.000000E-04   1.000000E-04   1.000000E-04   1.000000E-04   1.000000E-04   1.000000E-04   1.000000E-04   1.000000E-04   1.000000E-04   1.000000E-04   1.000000E-04
   1.000000E-04   1.000000E-04   1.000000E-04   1.000000E-04   1.000000E-04   1.000000E-04   1.000000E-04   1.000000E-04   1.000000E-04   1.000000E-04   1.000000E-04   1.000000E-04   1.000000E-04   1.000000E-04   1.000000E-04   1.000000E-04   1.000000E-04   1.000000E-04   1.000000E-04   1.000000E-04   1.000000E-04   1.000000E-04   1.000000E-04   1.000000E-04   1.000000E-04   1.000000E-04   1.000000E-04   1.200000E+02   1.200000E+02   1.200000E+02   1.200000E+02   1.200000E+02   1.200000E+02   1.200000E+02   1.200000E+02   1.200000E+02   1.200000E+02   1.200000E+02   1.200000E+02   1.200000E+02   1.200000E+02   1.200000E+02   1.200000E+02   1.200000E+02   1.200000E+02   1.200000E+02   1.200000E+02   1.200000E+02   1.200000E+02   1.200000E+02   1.200000E+02   1.200000E+02   1.200000E+02   1.200000E+02   1.200000E+02   1.200000E+02   1.200000E+02   1.200000E+02   1.200000E+02   1.200000E+02   1.200000E+02   1.200000E+02   1.200000E+02   1.200000E+02   1.200000E+02   1.200000E+02   1.200000E+02   1.200000E+02   1.200000E+02   1.200000E+02   1.200000E+02   1.200000E+02   1.200000E+02   1.200000E+02   1.200000E+02   1.200000E+02   1.200000E+02   1.200000E+02   1.200000E+02   1.200000E+02   1.200000E+02   1.200000E+02   1.200000E+02   1.200000E+02   1.200000E+02   1.200000E+02   1.200000E+02   1.200000E+02   1.200000E+02   1.200000E+02   1.200000E+02   1.200000E+02   1.200000E+02   1.200000E+02   1.200000E+02   1.200000E+02   1.200000E+02   1.200000E+02   1.200000E+02   1.200000E+02   1.200000E+02   1.200000E+02   1.200000E+02   1.200000E+02   1.200000E+02   1.000000E-04   1.000000E-04   1.000000E-04   1.000000E-04   1.000000E-04   1.000000E-04   1.000000E-04   1.000000E-04   1.000000E-04   1.000000E-04   1.000000E-04   1.000000E-04   1.000000E-04   1.000000E-04   1.000000E-04   1.000000E-04   1.000000E-04   1.000000E-04   1.000000E-04   1.000000E-04   1.000000E-04   1.000000E-04   1.000000E-04
   1.000000E-04   1.000000E-04   1.000000E-04   1.000000E-04   1.000000E-04   1.000000E-04   1.000000E-04   1.000000E-04   1.000000E-04   1.000000E-04   1.000000E-04   1.000000E-04   1.000000E-04   1.000000E-04   1.000000E-04   1.000000E-04   1.000000E-04   1.000000E-04   1.000000E-04   1.000000E-04   1.000000E-04   1.000000E-04   1.000000E-04   1.200000E+02   1.200000E+02   1.200000E+02   1.200000E+02   1.200000E+02   1.200000E+02   1.200000E+02   1.200000E+02   1.200000E+02   1.200000E+02   1.200000E+02   1.200000E+02   1.200000E+02   1.200000E+02   1.200000E+02   1.200000E+02   1.200000E+02   1.200000E+02   1.200000E+02   1.200000E+02   1.200000E+02   1.200000E+02   1.200000E+02   1.200000E+02   1.200000E+02   1.200000E+02   1.200000E+02   1.200000E+02   1.200000E+02   1.200000E+02   1.200000E+02   1.200000E+02   1.200000E+02   1.200000E+02   1.200000E+02   1.200000E+02   1.200000E+02   1.200000E+02   1.200000E+02   1.200000E+02   1.200000E+02   1.200000E+02   1.200000E+02   1.200000E+02   1.200000E+02   1.200000E+02   1.200000E+02   1.200000E+02   1.200000E+02   1.200000E+02   1.200000E+02   1.200000E+02   1.200000E+02   1.200000E+02   1.200000E+02   1.200000E+02   1.200000E+02   1.200000E+02   1.200000E+02   1.200000E+02   1.200000E+02   1.200000E+02   1.200000E+02   1.200000E+02   1.200000E+02   1.200000E+02   1.200000E+02   1.200000E+02   1.200000E+02   1.200000E+02   1.200000E+02   1.200000E+02   1.200000E+02   1.200000E+02   1.200000E+02   1.200000E+02   1.200000E+02   1.200000E+02   1.200000E+02   1.200000E+02   1.200000E+02   1.200000E+02   1.200000E+02   1.200000E+02   1.000000E-04   1.000000E-04   1.000000E-04   1.000000E-04   1.000000E-04   1.000000E-04   1.000000E-04   1.000000E-04   1.000000E-04   1.000000E-04   1.000000E-04   1.000000E-04   1.000000E-04   1.000000E-04   1.000000E-04   1.000000E-04   1.000000E-04   1.000000E-04   1.000000E-04   1.000000E-04   1.000000E-04
   1.000000E-04   1.000000E-04   1.000000E-04   1.000000E-04   1.000000E-04   1.000000E-04   1.000000E-04   1.000000E-04   1.000000E-04   1.000000E-04   1.000000E-04   1.000000E-04   1.000000E-04   1.000000E-04   1.000000E-04   1.000000E-04   1.000000E-04   1.000000E-04   1.000000E-04   1.200000E+02   1.200000E+02   1.200000E+02   1.200000E+02   1.200000E+02   1.200000E+02   1.200000E+02   1.200000E+02   1.200000E+02   1.200000E+02   1.200000E+02   1.200000E+02   1.200000E+02   1.200000E+02   1.200000E+02   1.200000E+02   1.200000E+02   1.200000E+02   1.200000E+02   1.200000E+02   1.200000E+02   1.200000E+02   1.200000E+02   1.200000E+02   1.200000E+02   1.200000E+02   1.200000E+02   1.200000E+02   1.200000E+02   1.200000E+02   1.200000E+02   1.200000E+02   1.200000E+02   1.200000E+02   1.200000E+02   1.200000E+02   1.200000E+02   1.200000E+02   1.200000E+02   1.200000E+02   1.200000E+02   1.200000E+02   1.200000E+02   1.200000E+02   1.200000E+02   1.200000E+02   1.200000E+02   1.200000E+02   1.200000E+02   1.200000E+02   1.200000E+02   1.200000E+02   1.200000E+02   1.200000E+02   1.200000E+02   1.200000E+02   1.200000E+02   1.200000E+02   1.200000E+02   1.200000E+02   1.200000E+02   1.200000E+02   1.200000E+02   1.200000E+02   1.200000E+02   1.200000E+02   1.200000E+02   1.200000E+02   1.200000E+02   1.200000E+02   1.200000E+02   1.200000E+02   1.200000E+02   1.200000E+02   1.200000E+02   1.200000E+02   1.200000E+02   1.200000E+02   1.200000E+02   1.200000E+02   1.200000E+02   1.200000E+02   1.200000E+02   1.200000E+02   1.200000E+02   1.200000E+02   1.200000E+02   1.200000E+02   1.200000E+02   1.200000E+02   1.200000E+02   1.000000E-04   1.000000E-04   1.000000E-04   1.000000E-04   1.000000E-04   1.000000E-04   1.000000E-04   1.000000E-04   1.000000E-04   1.000000E-04   1.000000E-04   1.000000E-04   1.000000E-04   1.000000E-04   1.000000E-04   1.000000E-04   1.000000E-04   1.000000E-04
   1.000000E-04   1.000000E-04   1.000000E-04   1.000000E-04   1.000000E-04   1.000000E-04   1.000000E-04   1.000000E-04   1.000000E-04   1.000000E-04   1.000000E-04   1.000000E-04   1.000000E-04   1.000000E-04   1.000000E-04   1.000000E-04   1.000000E-04   1.200000E+02   1.200000E+02   1.200000E+02   1.200000E+02   1.200000E+02   1.200000E+02   1.200000E+02   1.200000E+02   1.200000E+02   1.200000E+02   1.200000E+02   1.200000E+02   1.200000E+02   1.200000E+02   1.200000E+02   1.200000E+02   1.200000E+02   1.200000E+02   1.200000E+02   1.200000E+02   1.200000E+02   1.200000E+02   1.200000E+02   1.200000E+02   1.200000E+02   1.200000E+02   1.200000E+02   1.200000E+02   1.200000E+02   1.200000E+02   1.200000E+02   1.200000E+02   1.200000E+02   1.200000E+02   1.200000E+02   1.200000E+02   1.200000E+02   1.200000E+02   1.200000E+02   1.200000E+02   1.200000E+02   1.200000E+02   1.200000E+02   1.200000E+02   1.200000E+02   1.200000E+02   1.200000E+02   1.200000E+02   1.200000E+02   1.200000E+02   1.200000E+02   1.200000E+02   1.200000E+02   1.200000E+02   1.200000E+02   1.200000E+02   1.200000E+02   1.200000E+02   1.200000E+02   1.200000E+02   1.200000E+02   1.200000E+02   1.200000E+02   1.200000E+02   1.200000E+02   1.200000E+02   1.200000E+02   1.200000E+02   1.200000E+02   1.200000E+02   1.200000E+02   1.200000E+02   1.200000E+02   1.200000E+02   1.200000E+02   1.200000E+02   1.200000E+02   1.200000E+02   1.200000E+02   1.200000E+02   1.200000E+02   1.200000E+02   1.200000E+02   1.200000E+02   1.200000E+02   1.200000E+02   1.200000E+02   1.200000E+02   1.200000E+02   1.200000E+02   1.200000E+02   1.200000E+02   1.200000E+02   1.200000E+02   1.200000E+02   1.200000E+02   1.000000E-04   1.000000E-04   1.000000E-04   1.000000E-04   1.000000E-04   1.000000E-04   1.000000E-04   1.000000E-04   1.000000E-04   1.000000E-04   1.000000E-04   1.000000E-04   1.000000E-04   1.000000E-04   1.000000E-04