# Name file for MODPATH, generated by Flopy version 3.9.3.
MPBAS  86 biglake_mp.mpbas
DIS 719 biglake.dis
HEAD  88 biglake.hed
BUDGET  89 biglake.ccf
