# WEL package for MODFLOW-2000 generated by Flopy 3.9.3
         3       740  AUX IFACE AUX QFACT AUX CELLGRP
         3         0 # stress period 1
         1        35        34     -4000         0         1         1
         1        28        65     -3000         0         1         2
         1        68        88     -2500         0         1         3
