# RIV package for MODFLOW-2000 generated by Flopy 3.9.3
       163       740 AUX IFACE AUX CONDFACT AUX CELLGRP
       163         0 # stress period 1
         1        56       100       110   0.23868   106.945         6    9.5472         1
         1        56       101       110   0.87309   106.689         6   34.9236         1
         1        56       102       110  0.819157   106.299         6   32.7663         1
         1        55       102       110   0.14903   106.076         6   5.96118         1
         1        55       103       110   1.01077   105.809         6   40.4308         1
         1        55       104       110   1.01077   105.343         6   40.4308         1
         1        55       105       110   1.05337   104.868         6   42.1347         1
         1        54       105       110 0.0179403   104.621         6  0.717614         1
         1        54       106       110   1.13179   104.356         6   45.2715         1
         1        54       107       110  0.543378   103.971         6   21.7351         1
         1        53       107       110  0.588411    103.71         6   23.5364         1
         1        53       108       110    1.1047    103.32         6   44.1878         1
         1        52       108       110 0.0270925   103.059         6    1.0837         1
         1        52       109       110   1.11663   102.796         6   44.6654         1
         1        52       110       110  0.640954   102.391         6   25.6382         1
         1        51       110       110  0.469807   102.135         6   18.7923         1
         1        51       111       110   1.11076   101.771         6   44.4305         1
         1        51       112       110  0.227393   101.463         6   9.09573         1
         1        50       112       110  0.879097   101.208         6   35.1639         1
         1        50       113       110   1.07504   100.758         6   43.0016         1
         1        50       114       110 0.0235185   100.505         6  0.940738         1
         1        49       114       110     1.057   100.256         6   42.2802         1
         1        49       115       110  0.640226   99.8653         6    25.609         1
         1        50       115       110  0.482579   99.6067         6   19.3032         1
         1        50       116       110    1.1484    99.231         6   45.9361         1
         1        51       116       110 0.0371529    98.958         6   1.48612         1
         1        51       117       110  0.984115   98.7227         6   39.3646         1
         1        52       117       110  0.643454   98.3479         6   25.7381         1
         1        52       118       110   1.00897   97.9673         6   40.3589         1
         1        52       119       110   1.15626   97.4686         6   46.2502         1
         1        13        81   117.998  0.016777   114.998         6  0.671081         2
         1        13        82   117.966  0.205369   114.966         6   8.21475         2
         1        14        82   117.872  0.470176   114.872         6    18.807         2
         1        14        83    117.72  0.614132    114.72         6   24.5653         2
         1        14        84    117.61  0.172968    114.61         6   6.91873         2
         1        15        84   117.515  0.504331   114.515         6   20.1733         2
         1        15        85    117.38  0.457925    114.38         6    18.317         2
         1        16        85   117.213  0.734621   114.213         6   29.3848         2
         1        16        86   117.099 0.0827139   114.099         6   3.30855         2
         1        17        86   117.085  0.015749   114.085         6   0.62996         2
         1        17        85    116.98  0.733708    113.98         6   29.3483         2
         1        18        85   116.828  0.350364   113.828         6   14.0146         2
         1        18        84   116.733  0.334229   113.733         6   13.3692         2
         1        19        84   116.607  0.562967   113.607         6   22.5187         2
         1        19        83   116.514  0.098851   113.514         6   3.95404         2
         1        20        83   116.416  0.601652   113.416         6   24.0661         2
         1        21        83   116.306  0.185221   113.306         6   7.40885         2
         1        21        82   116.229  0.361735   113.229         6   14.4694         2
         1        22        82   116.109  0.497233   113.109         6   19.8893         2
         1        23        82   116.023  0.115328   113.023         6   4.61314         2
         1        23        81    115.96  0.336702    112.96         6   13.4681         2
         1        24        81   115.855  0.410937   112.855         6   16.4375         2
         1        25        81   115.753  0.324088   112.753         6   12.9635         2
         1        25        80     115.7 0.0494905     112.7         6   1.97962         2
         1        26        80   115.646  0.336465   112.646         6   13.4586         2
         1        27        80   115.559  0.288948   112.559         6   11.5579         2
         1        28        80   115.481   0.26268   112.481         6   10.5072         2
         1        29        80   115.404  0.288948   112.404         6   11.5579         2
         1        30        80   115.334  0.212322   112.334         6   8.49288         2
         1        30        79   115.292   0.08772   112.292         6    3.5088         2
         1        31        79   115.238  0.300042   112.238         6   12.0017         2
         1        32        79   115.154  0.300042   112.154         6   12.0017         2
         1        33        79    115.07  0.300042    112.07         6   12.0017         2
         1        34        79   114.987  0.288948   111.987         6   11.5579         2
         1        35        79    114.91   0.26268    111.91         6   10.5072         2
         1        36        79   114.864 0.0628794   111.864         6   2.51518         2
         1        36        78   114.824  0.226069   111.824         6   9.04275         2
         1        37        78   114.748  0.317843   111.748         6   12.7137         2
         1        38        78   114.654  0.349627   111.654         6   13.9851         2
         1        39        78   114.553  0.372238   111.553         6   14.8895         2
         1        40        78   114.444   0.40758   111.444         6   16.3032         2
         1        41        78   114.324  0.448338   111.324         6   17.9335         2
         1        42        78   114.192  0.493172   111.192         6   19.7269         2
         1        43        78   114.098  0.182559   111.098         6   7.30238         2
         1        43        79   114.022   0.35993   111.022         6   14.3972         2
         1        44        79   113.888  0.596738   110.888         6   23.8695         2
         1        45        79   113.712  0.656412   110.712         6   26.2565         2
         1        46        79   113.548  0.516921   110.548         6   20.6768         2
         1        46        80    113.43  0.327695    110.43         6   13.1078         2
         1        47        80    113.31  0.525795    110.31         6   21.0318         2
         1        47        81   113.176  0.434245   110.176         6   17.3698         2
         1        48        81   113.058  0.411167   110.058         6   16.4467         2
         1        48        82   112.916  0.597447   109.916         6   23.8979         2
         1        49        82   112.809   0.17111   109.809         6   6.84441         2
         1        49        83   112.705  0.569438   109.705         6   22.7775         2
         1        49        84   112.562  0.449043   109.562         6   17.9617         2
         1        50        84   112.496 0.0277205   109.496         6   1.10882         2
         1        50        85   112.431  0.433422   109.431         6   17.3369         2
         1        50        86   112.315   0.39402   109.315         6   15.7608         2
         1        50        87    112.21    0.3582    109.21         6    14.328         2
         1        50        88   112.149 0.0730554   109.149         6   2.92222         2
         1        51        88   112.104  0.252581   109.104         6   10.1032         2
         1        51        89   112.018    0.3582   109.018         6    14.328         2
         1        51        90   111.913   0.39402   108.913         6   15.7608         2
         1        51        91   111.815  0.304056   108.815         6   12.1622         2
         1        52        91   111.758  0.106679   108.758         6   4.26716         2
         1        52        92   111.681  0.441066   108.681         6   17.6426         2
         1        52        93   111.551  0.485172   108.551         6   19.4069         2
         1        52        94   111.421  0.444427   108.421         6   17.7771         2
         1        53        94   111.346 0.0892629   108.346         6   3.57051         2
         1        53        95   111.252  0.587058   108.252         6   23.4823         2
         1        53        96    111.08  0.642299    108.08         6    25.692         2
         1        53        97   110.952  0.271708   107.952         6   10.8683         2
         1        54        97   110.864  0.356741   107.864         6   14.2696         2
         1        54        98   110.717  0.691294   107.717         6   27.6518         2
         1        54        99   110.513  0.762289   107.513         6   30.4916         2
         1        54       100   110.377  0.210596   107.377         6   8.42385         2
         1        55       100   110.223  0.890288   107.223         6   35.6115         2
         1        56       100   110.049   0.35137   107.049         6   14.0548         2
         1        59        54   119.956  0.182703   116.956         6   7.30813         3
         1        59        55   119.743  0.709114   116.743         6   28.3646         3
         1        58        55    119.56 0.0569075    116.56         6    2.2763         3
         1        58        56    119.38  0.696383    116.38         6   27.8553         3
         1        58        57   119.107   0.44943   116.107         6   17.9772         3
         1        57        57   118.953  0.192927   115.953         6   7.71707         3
         1        57        58   118.768  0.584868   115.768         6   23.3947         3
         1        57        59   118.506   0.51131   115.506         6   20.4524         3
         1        56        59   118.379 0.0203882   115.379         6  0.815527         3
         1        56        60   118.258  0.483362   115.258         6   19.3345         3
         1        56        61   118.041  0.424368   115.041         6   16.9747         3
         1        56        62   117.853  0.366006   114.853         6   14.6402         3
         1        56        63   117.686  0.332733   114.686         6   13.3093         3
         1        56        64   117.6050.00616674   114.605         6   0.24667         3
         1        55        64   117.533  0.296317   114.533         6   11.8527         3
         1        55        65   117.396  0.274986   114.396         6   10.9994         3
         1        55        66   117.258  0.302484   114.258         6   12.0994         3
         1        55        67   117.106  0.332733   114.106         6   13.3093         3
         1        55        68   116.939  0.366006   113.939         6   14.6402         3
         1        55        69   116.756  0.402606   113.756         6   16.1043         3
         1        55        70   116.6590.00401838   113.659         6  0.160735         3
         1        54        70   116.562  0.401633   113.562         6   16.0653         3
         1        54        71    116.36  0.445455    113.36         6   17.8182         3
         1        54        72   116.136      0.49   113.136         6      19.6         3
         1        54        73   115.901  0.494682   112.901         6   19.7873         3
         1        54        74   115.665  0.494682   112.665         6   19.7873         3
         1        54        75   115.428  0.494682   112.428         6   19.7873         3
         1        54        76   115.192  0.495645   112.192         6   19.8258         3
         1        54        77   114.954  0.499497   111.954         6   19.9799         3
         1        54        78   114.715  0.499497   111.715         6   19.9799         3
         1        54        79   114.477  0.499497   111.477         6   19.9799         3
         1        54        80   114.266  0.384318   111.266         6   15.3727         3
         1        55        80   114.146  0.115179   111.146         6   4.60716         3
         1        55        81   114.001   0.49477   111.001         6   19.7908         3
         1        55        82   113.775  0.449791   110.775         6   17.9916         3
         1        55        83    113.57  0.408901    110.57         6    16.356         3
         1        55        84   113.383   0.37235   110.383         6    14.894         3
         1        55        85   113.213  0.341559   110.213         6   13.6624         3
         1        55        86   113.057  0.310508   110.057         6   12.4203         3
         1        55        87   112.915   0.28228   109.915         6   11.2912         3
         1        55        88   112.787  0.256618   109.787         6   10.2647         3
         1        55        89   112.658   0.28228   109.658         6   11.2912         3
         1        55        90   112.516  0.310508   109.516         6   12.4203         3
         1        55        91    112.36  0.341559    109.36         6   13.6624         3
         1        55        92   112.257 0.0908244   109.257         6   3.63298         3
         1        56        92   112.168   0.28489   109.168         6   11.3956         3
         1        56        93   112.001  0.413286   109.001         6   16.5315         3
         1        56        94   111.793  0.454615   108.793         6   18.1846         3
         1        56        95   111.568  0.490766   108.568         6   19.6306         3
         1        56        96   111.322  0.535924   108.322         6    21.437         3
         1        56        97   111.053  0.589517   108.053         6   23.5807         3
         1        56        98   110.758  0.648468   107.758         6   25.9387         3
         1        56        99   110.433  0.713315   107.433         6   28.5326         3
         1        56       100   110.131  0.548694   107.131         6   21.9478         3
