# BAS6 package for MODFLOW-2000 generated by Flopy 3.9.3
FREE
INTERNAL               1    (50I10) -1 #ibound layer 1                
         1         1         1         1         1         1         1         1         1         1         1         1         1         1         1         1         1         1         1         1         1         1         1         1         1         1         1         1         1         1         1         1         1         1         1         1         1         1         1         1         1         1         1         1         1         1         1         1         1        -1
         1         1         1         1         1         1         1         1         1         1         1         1         1         1         1         1         1         1         1         1         1         1         1         1         1         1         1         1         1         1         1         1         1         1         1         1         1         1         1         1         1         1         1         1         1         1         1         1         1        -1
         1         1         1         1         1         1         1         1         1         1         1         1         1         1         1         1         1         1         1         1         1         1         1         1         1         1         1         1         1         1         1         1         1         1         1         1         1         1         1         1         1         1         1         1         1         1         1         1         1        -1
         1         1         1         1         1         1         1         1         1         1         1         1         1         1         1         1         1         1         1         1         1         1         1         1         1         1         1         1         1         1         1         1         1         1         1         1         1         1         1         1         1         1         1         1         1         1         1         1         1        -1
         1         1         1         1         1         1         1         1         1         1         1         1         1         1         1         1         1         1         1         1         1         1         1         1         1         1         1         1         1         1         1         1         1         1         1         1         1         1         1         1         1         1         1         1         1         1         1         1         1        -1
         1         1         1         1         1         1         1         1         1         1         1         1         1         1         1         1         1         1         1         1         1         1         1         1         1         1         1         1         1         1         1         1         1         1         1         1         1         1         1         1         1         1         1         1         1         1         1         1         1        -1
         1         1         1         1         1         1         1         1         1         1         1         1         1         1         1         1         1         1         1         1         1         1         1         1         1         1         1         1         1         1         1         1         1         1         1         1         1         1         1         1         1         1         1         1         1         1         1         1         1        -1
         1         1         1         1         1         1         1         1         1         1         1         1         1         1         1         1         1         1         1         1         1         1         1         1         1         1         1         1         1         1         1         1         1         1         1         1         1         1         1         1         1         1         1         1         1         1         1         1         1        -1
         1         1         1         1         1         1         1         1         1         1         1         1         1         1         1         1         1         1         1         1         1         1         1         1         1         1         1         1         1         1         1         1         1         1         1         1         1         1         1         1         1         1         1         1         1         1         1         1         1        -1
         1         1         1         1         1         1         1         1         1         1         1         1         1         1         1         1         1         1         1         1         1         1         1         1         1         1         1         1         1         1         1         1         1         1         1         1         1         1         1         1         1         1         1         1         1         1         1         1         1        -1
         1         1         1         1         1         1         1         1         1         1         1         1         1         1         1         1         1         1         1         1         1         1         1         1         1         1         1         1         1         1         1         1         1         1         1         1         1         1         1         1         1         1         1         1         1         1         1         1         1        -1
         1         1         1         1         1         1         1         1         1         1         1         1         1         1         1         1         1         1         1         1         1         1         1         1         1         1         1         1         1         1         1         1         1         1         1         1         1         1         1         1         1         1         1         1         1         1         1         1         1        -1
         1         1         1         1         1         1         1         1         1         1         1         1         1         1         1         1         1         1         1         1         1         1         1         1         1         1         1         1         1         1         1         1         1         1         1         1         1         1         1         1         1         1         1         1         1         1         1         1         1        -1
         1         1         1         1         1         1         1         1         1         1         1         1         1         1         1         1         1         1         1         1         1         1         1         1         1         1         1         1         1         1         1         1         1         1         1         1         1         1         1         1         1         1         1         1         1         1         1         1         1        -1
         1         1         1         1         1         1         1         1         1         1         1         1         1         1         1         1         1         1         1         1         1         1         1         1         1         1         1         1         1         1         1         1         1         1         1         1         1         1         1         1         1         1         1         1         1         1         1         1         1        -1
         1         1         1         1         1         1         1         1         1         1         1         1         1         1         1         1         1         1         1         1         1         1         1         1         1         1         1         1         1         1         1         1         1         1         1         1         1         1         1         1         1         1         1         1         1         1         1         1         1        -1
         1         1         1         1         1         1         1         1         1         1         1         1         1         1         1         1         1         1         1         1         1         1         1         1         1         1         1         1         1         1         1         1         1         1         1         1         1         1         1         1         1         1         1         1         1         1         1         1         1        -1
         1         1         1         1         1         1         1         1         1         1         1         1         1         1         1         1         1         1         1         1         1         1         1         1         1         1         1         1         1         1         1         1         1         1         1         1         1         1         1         1         1         1         1         1         1         1         1         1         1        -1
         1         1         1         1         1         1         1         1         1         1         1         1         1         1         1         1         1         1         1         1         1         1         1         1         1         1         1         1         1         1         1         1         1         1         1         1         1         1         1         1         1         1         1         1         1         1         1         1         1        -1
         1         1         1         1         1         1         1         1         1         1         1         1         1         1         1         1         1         1         1         1         1         1         1         1         1         1         1         1         1         1         1         1         1         1         1         1         1         1         1         1         1         1         1         1         1         1         1         1         1        -1
         1         1         1         1         1         1         1         1         1         1         1         1         1         1         1         1         1         1         1         1         1         1         1         1         1         1         1         1         1         1         1         1         1         1         1         1         1         1         1         1         1         1         1         1         1         1         1         1         1        -1
         1         1         1         1         1         1         1         1         1         1         1         1         1         1         1         1         1         1         1         1         1         1         1         1         1         1         1         1         1         1         1         1         1         1         1         1         1         1         1         1         1         1         1         1         1         1         1         1         1        -1
         1         1         1         1         1         1         1         1         1         1         1         1         1         1         1         1         1         1         1         1         1         1         1         1         1         1         1         1         1         1         1         1         1         1         1         1         1         1         1         1         1         1         1         1         1         1         1         1         1        -1
         1         1         1         1         1         1         1         1         1         1         1         1         1         1         1         1         1         1         1         1         1         1         1         1         1         1         1         1         1         1         1         1         1         1         1         1         1         1         1         1         1         1         1         1         1         1         1         1         1        -1
         1         1         1         1         1         1         1         1         1         1         1         1         1         1         1         1         1         1         1         1         1         1         1         1         1         1         1         1         1         1         1         1         1         1         1         1         1         1         1         1         1         1         1         1         1         1         1         1         1        -1
         1         1         1         1         1         1         1         1         1         1         1         1         1         1         1         1         1         1         1         1         1         1         1         1         1         1         1         1         1         1         1         1         1         1         1         1         1         1         1         1         1         1         1         1         1         1         1         1         1        -1
         1         1         1         1         1         1         1         1         1         1         1         1         1         1         1         1         1         1         1         1         1         1         1         1         1         1         1         1         1         1         1         1         1         1         1         1         1         1         1         1         1         1         1         1         1         1         1         1         1        -1
         1         1         1         1         1         1         1         1         1         1         1         1         1         1         1         1         1         1         1         1         1         1         1         1         1         1         1         1         1         1         1         1         1         1         1         1         1         1         1         1         1         1         1         1         1         1         1         1         1        -1
         1         1         1         1         1         1         1         1         1         1         1         1         1         1         1         1         1         1         1         1         1         1         1         1         1         1         1         1         1         1         1         1         1         1         1         1         1         1         1         1         1         1         1         1         1         1         1         1         1        -1
         1         1         1         1         1         1         1         1         1         1         1         1         1         1         1         1         1         1         1         1         1         1         1         1         1         1         1         1         1         1         1         1         1         1         1         1         1         1         1         1         1         1         1         1         1         1         1         1         1        -1
         1         1         1         1         1         1         1         1         1         1         1         1         1         1         1         1         1         1         1         1         1         1         1         1         1         1         1         1         1         1         1         1         1         1         1         1         1         1         1         1         1         1         1         1         1         1         1         1         1        -1
         1         1         1         1         1         1         1         1         1         1         1         1         1         1         1         1         1         1         1         1         1         1         1         1         1         1         1         1         1         1         1         1         1         1         1         1         1         1         1         1         1         1         1         1         1         1         1         1         1        -1
         1         1         1         1         1         1         1         1         1         1         1         1         1         1         1         1         1         1         1         1         1         1         1         1         1         1         1         1         1         1         1         1         1         1         1         1         1         1         1         1         1         1         1         1         1         1         1         1         1        -1
         1         1         1         1         1         1         1         1         1         1         1         1         1         1         1         1         1         1         1         1         1         1         1         1         1         1         1         1         1         1         1         1         1         1         1         1         1         1         1         1         1         1         1         1         1         1         1         1         1        -1
         1         1         1         1         1         1         1         1         1         1         1         1         1         1         1         1         1         1         1         1         1         1         1         1         1         1         1         1         1         1         1         1         1         1         1         1         1         1         1         1         1         1         1         1         1         1         1         1         1        -1
         1         1         1         1         1         1         1         1         1         1         1         1         1         1         1         1         1         1         1         1         1         1         1         1         1         1         1         1         1         1         1         1         1         1         1         1         1         1         1         1         1         1         1         1         1         1         1         1         1        -1
         1         1         1         1         1         1         1         1         1         1         1         1         1         1         1         1         1         1         1         1         1         1         1         1         1         1         1         1         1         1         1         1         1         1         1         1         1         1         1         1         1         1         1         1         1         1         1         1         1        -1
         1         1         1         1         1         1         1         1         1         1         1         1         1         1         1         1         1         1         1         1         1         1         1         1         1         1         1         1         1         1         1         1         1         1         1         1         1         1         1         1         1         1         1         1         1         1         1         1         1        -1
         1         1         1         1         1         1         1         1         1         1         1         1         1         1         1         1         1         1         1         1         1         1         1         1         1         1         1         1         1         1         1         1         1         1         1         1         1         1         1         1         1         1         1         1         1         1         1         1         1        -1
         1         1         1         1         1         1         1         1         1         1         1         1         1         1         1         1         1         1         1         1         1         1         1         1         1         1         1         1         1         1         1         1         1         1         1         1         1         1         1         1         1         1         1         1         1         1         1         1         1        -1
   -999.99
INTERNAL               1  (50E15.6) -1 #strt layer 1                  
   2.000000E+02   2.000000E+02   2.000000E+02   2.000000E+02   2.000000E+02   2.000000E+02   2.000000E+02   2.000000E+02   2.000000E+02   2.000000E+02   2.000000E+02   2.000000E+02   2.000000E+02   2.000000E+02   2.000000E+02   2.000000E+02   2.000000E+02   2.000000E+02   2.000000E+02   2.000000E+02   2.000000E+02   2.000000E+02   2.000000E+02   2.000000E+02   2.000000E+02   2.000000E+02   2.000000E+02   2.000000E+02   2.000000E+02   2.000000E+02   2.000000E+02   2.000000E+02   2.000000E+02   2.000000E+02   2.000000E+02   2.000000E+02   2.000000E+02   2.000000E+02   2.000000E+02   2.000000E+02   2.000000E+02   2.000000E+02   2.000000E+02   2.000000E+02   2.000000E+02   2.000000E+02   2.000000E+02   2.000000E+02   2.000000E+02   1.500000E+02
   2.000000E+02   2.000000E+02   2.000000E+02   2.000000E+02   2.000000E+02   2.000000E+02   2.000000E+02   2.000000E+02   2.000000E+02   2.000000E+02   2.000000E+02   2.000000E+02   2.000000E+02   2.000000E+02   2.000000E+02   2.000000E+02   2.000000E+02   2.000000E+02   2.000000E+02   2.000000E+02   2.000000E+02   2.000000E+02   2.000000E+02   2.000000E+02   2.000000E+02   2.000000E+02   2.000000E+02   2.000000E+02   2.000000E+02   2.000000E+02   2.000000E+02   2.000000E+02   2.000000E+02   2.000000E+02   2.000000E+02   2.000000E+02   2.000000E+02   2.000000E+02   2.000000E+02   2.000000E+02   2.000000E+02   2.000000E+02   2.000000E+02   2.000000E+02   2.000000E+02   2.000000E+02   2.000000E+02   2.000000E+02   2.000000E+02   1.500000E+02
   2.000000E+02   2.000000E+02   2.000000E+02   2.000000E+02   2.000000E+02   2.000000E+02   2.000000E+02   2.000000E+02   2.000000E+02   2.000000E+02   2.000000E+02   2.000000E+02   2.000000E+02   2.000000E+02   2.000000E+02   2.000000E+02   2.000000E+02   2.000000E+02   2.000000E+02   2.000000E+02   2.000000E+02   2.000000E+02   2.000000E+02   2.000000E+02   2.000000E+02   2.000000E+02   2.000000E+02   2.000000E+02   2.000000E+02   2.000000E+02   2.000000E+02   2.000000E+02   2.000000E+02   2.000000E+02   2.000000E+02   2.000000E+02   2.000000E+02   2.000000E+02   2.000000E+02   2.000000E+02   2.000000E+02   2.000000E+02   2.000000E+02   2.000000E+02   2.000000E+02   2.000000E+02   2.000000E+02   2.000000E+02   2.000000E+02   1.500000E+02
   2.000000E+02   2.000000E+02   2.000000E+02   2.000000E+02   2.000000E+02   2.000000E+02   2.000000E+02   2.000000E+02   2.000000E+02   2.000000E+02   2.000000E+02   2.000000E+02   2.000000E+02   2.000000E+02   2.000000E+02   2.000000E+02   2.000000E+02   2.000000E+02   2.000000E+02   2.000000E+02   2.000000E+02   2.000000E+02   2.000000E+02   2.000000E+02   2.000000E+02   2.000000E+02   2.000000E+02   2.000000E+02   2.000000E+02   2.000000E+02   2.000000E+02   2.000000E+02   2.000000E+02   2.000000E+02   2.000000E+02   2.000000E+02   2.000000E+02   2.000000E+02   2.000000E+02   2.000000E+02   2.000000E+02   2.000000E+02   2.000000E+02   2.000000E+02   2.000000E+02   2.000000E+02   2.000000E+02   2.000000E+02   2.000000E+02   1.500000E+02
   2.000000E+02   2.000000E+02   2.000000E+02   2.000000E+02   2.000000E+02   2.000000E+02   2.000000E+02   2.000000E+02   2.000000E+02   2.000000E+02   2.000000E+02   2.000000E+02   2.000000E+02   2.000000E+02   2.000000E+02   2.000000E+02   2.000000E+02   2.000000E+02   2.000000E+02   2.000000E+02   2.000000E+02   2.000000E+02   2.000000E+02   2.000000E+02   2.000000E+02   2.000000E+02   2.000000E+02   2.000000E+02   2.000000E+02   2.000000E+02   2.000000E+02   2.000000E+02   2.000000E+02   2.000000E+02   2.000000E+02   2.000000E+02   2.000000E+02   2.000000E+02   2.000000E+02   2.000000E+02   2.000000E+02   2.000000E+02   2.000000E+02   2.000000E+02   2.000000E+02   2.000000E+02   2.000000E+02   2.000000E+02   2.000000E+02   1.500000E+02
   2.000000E+02   2.000000E+02   2.000000E+02   2.000000E+02   2.000000E+02   2.000000E+02   2.000000E+02   2.000000E+02   2.000000E+02   2.000000E+02   2.000000E+02   2.000000E+02   2.000000E+02   2.000000E+02   2.000000E+02   2.000000E+02   2.000000E+02   2.000000E+02   2.000000E+02   2.000000E+02   2.000000E+02   2.000000E+02   2.000000E+02   2.000000E+02   2.000000E+02   2.000000E+02   2.000000E+02   2.000000E+02   2.000000E+02   2.000000E+02   2.000000E+02   2.000000E+02   2.000000E+02   2.000000E+02   2.000000E+02   2.000000E+02   2.000000E+02   2.000000E+02   2.000000E+02   2.000000E+02   2.000000E+02   2.000000E+02   2.000000E+02   2.000000E+02   2.000000E+02   2.000000E+02   2.000000E+02   2.000000E+02   2.000000E+02   1.500000E+02
   2.000000E+02   2.000000E+02   2.000000E+02   2.000000E+02   2.000000E+02   2.000000E+02   2.000000E+02   2.000000E+02   2.000000E+02   2.000000E+02   2.000000E+02   2.000000E+02   2.000000E+02   2.000000E+02   2.000000E+02   2.000000E+02   2.000000E+02   2.000000E+02   2.000000E+02   2.000000E+02   2.000000E+02   2.000000E+02   2.000000E+02   2.000000E+02   2.000000E+02   2.000000E+02   2.000000E+02   2.000000E+02   2.000000E+02   2.000000E+02   2.000000E+02   2.000000E+02   2.000000E+02   2.000000E+02   2.000000E+02   2.000000E+02   2.000000E+02   2.000000E+02   2.000000E+02   2.000000E+02   2.000000E+02   2.000000E+02   2.000000E+02   2.000000E+02   2.000000E+02   2.000000E+02   2.000000E+02   2.000000E+02   2.000000E+02   1.500000E+02
   2.000000E+02   2.000000E+02   2.000000E+02   2.000000E+02   2.000000E+02   2.000000E+02   2.000000E+02   2.000000E+02   2.000000E+02   2.000000E+02   2.000000E+02   2.000000E+02   2.000000E+02   2.000000E+02   2.000000E+02   2.000000E+02   2.000000E+02   2.000000E+02   2.000000E+02   2.000000E+02   2.000000E+02   2.000000E+02   2.000000E+02   2.000000E+02   2.000000E+02   2.000000E+02   2.000000E+02   2.000000E+02   2.000000E+02   2.000000E+02   2.000000E+02   2.000000E+02   2.000000E+02   2.000000E+02   2.000000E+02   2.000000E+02   2.000000E+02   2.000000E+02   2.000000E+02   2.000000E+02   2.000000E+02   2.000000E+02   2.000000E+02   2.000000E+02   2.000000E+02   2.000000E+02   2.000000E+02   2.000000E+02   2.000000E+02   1.500000E+02
   2.000000E+02   2.000000E+02   2.000000E+02   2.000000E+02   2.000000E+02   2.000000E+02   2.000000E+02   2.000000E+02   2.000000E+02   2.000000E+02   2.000000E+02   2.000000E+02   2.000000E+02   2.000000E+02   2.000000E+02   2.000000E+02   2.000000E+02   2.000000E+02   2.000000E+02   2.000000E+02   2.000000E+02   2.000000E+02   2.000000E+02   2.000000E+02   2.000000E+02   2.000000E+02   2.000000E+02   2.000000E+02   2.000000E+02   2.000000E+02   2.000000E+02   2.000000E+02   2.000000E+02   2.000000E+02   2.000000E+02   2.000000E+02   2.000000E+02   2.000000E+02   2.000000E+02   2.000000E+02   2.000000E+02   2.000000E+02   2.000000E+02   2.000000E+02   2.000000E+02   2.000000E+02   2.000000E+02   2.000000E+02   2.000000E+02   1.500000E+02
   2.000000E+02   2.000000E+02   2.000000E+02   2.000000E+02   2.000000E+02   2.000000E+02   2.000000E+02   2.000000E+02   2.000000E+02   2.000000E+02   2.000000E+02   2.000000E+02   2.000000E+02   2.000000E+02   2.000000E+02   2.000000E+02   2.000000E+02   2.000000E+02   2.000000E+02   2.000000E+02   2.000000E+02   2.000000E+02   2.000000E+02   2.000000E+02   2.000000E+02   2.000000E+02   2.000000E+02   2.000000E+02   2.000000E+02   2.000000E+02   2.000000E+02   2.000000E+02   2.000000E+02   2.000000E+02   2.000000E+02   2.000000E+02   2.000000E+02   2.000000E+02   2.000000E+02   2.000000E+02   2.000000E+02   2.000000E+02   2.000000E+02   2.000000E+02   2.000000E+02   2.000000E+02   2.000000E+02   2.000000E+02   2.000000E+02   1.500000E+02
   2.000000E+02   2.000000E+02   2.000000E+02   2.000000E+02   2.000000E+02   2.000000E+02   2.000000E+02   2.000000E+02   2.000000E+02   2.000000E+02   2.000000E+02   2.000000E+02   2.000000E+02   2.000000E+02   2.000000E+02   2.000000E+02   2.000000E+02   2.000000E+02   2.000000E+02   2.000000E+02   2.000000E+02   2.000000E+02   2.000000E+02   2.000000E+02   2.000000E+02   2.000000E+02   2.000000E+02   2.000000E+02   2.000000E+02   2.000000E+02   2.000000E+02   2.000000E+02   2.000000E+02   2.000000E+02   2.000000E+02   2.000000E+02   2.000000E+02   2.000000E+02   2.000000E+02   2.000000E+02   2.000000E+02   2.000000E+02   2.000000E+02   2.000000E+02   2.000000E+02   2.000000E+02   2.000000E+02   2.000000E+02   2.000000E+02   1.500000E+02
   2.000000E+02   2.000000E+02   2.000000E+02   2.000000E+02   2.000000E+02   2.000000E+02   2.000000E+02   2.000000E+02   2.000000E+02   2.000000E+02   2.000000E+02   2.000000E+02   2.000000E+02   2.000000E+02   2.000000E+02   2.000000E+02   2.000000E+02   2.000000E+02   2.000000E+02   2.000000E+02   2.000000E+02   2.000000E+02   2.000000E+02   2.000000E+02   2.000000E+02   2.000000E+02   2.000000E+02   2.000000E+02   2.000000E+02   2.000000E+02   2.000000E+02   2.000000E+02   2.000000E+02   2.000000E+02   2.000000E+02   2.000000E+02   2.000000E+02   2.000000E+02   2.000000E+02   2.000000E+02   2.000000E+02   2.000000E+02   2.000000E+02   2.000000E+02   2.000000E+02   2.000000E+02   2.000000E+02   2.000000E+02   2.000000E+02   1.500000E+02