# LPF package for MODFLOW-2000 generated by Flopy 3.9.3
         0    -1E+30         0  
         1
         0
   1.000000E+00
         0
         0
CONSTANT    1.000000E+00                           #hk layer 1                    
CONSTANT    1.000000E+00                           #vka1                          
