# Name file for MODFLOW-2000, generated by Flopy version 3.9.3.
#xll:0.0; yll:0.0; rotation:0.0; units:meters; lenuni:2; start_datetime:1-1-1970
GLOBAL             1  pre_dev_mf.glo
LIST               2  pre_dev_mf.list
DIS               11  pre_dev_mf.dis
BAS6              13  pre_dev_mf.bas
LPF               15  pre_dev_mf.lpf
RCH               19  pre_dev_mf.rch
PCG               27  pre_dev_mf.pcg
OC                14  pre_dev_mf.oc
DATA(BINARY)      51  pre_dev_mf.hds REPLACE
DATA(BINARY)      52  pre_dev_mf.ddn REPLACE
