# RCH package for MODFLOW-2000 generated by Flopy 3.9.3
         3         0
         1        -1 # Stress period 1
CONSTANT    1.000000E-02                           #rech_1                        
