# DIS package for MODFLOW-2000 generated by Flopy 3.9.3
         1        40        50         1         4         2
  0
CONSTANT    2.000000E+01                           #delr                          
CONSTANT    2.000000E+01                           #delc                          
CONSTANT    2.000000E+02                           #model_top                     
CONSTANT    0.000000E+00                           #botm layer 1                  
   2000.000000           200  1.000000  TR
