# OC package for MODFLOW-2000 generated by Flopy 3.9.3
HEAD PRINT FORMAT   0
HEAD SAVE UNIT    51
DRAWDOWN PRINT FORMAT   0
COMPACT BUDGET AUX

period 1 step 1 
  save head
  save budget

period 1 step 3 
  save head
  save budget

period 1 step 5 
  save head
  save budget

period 1 step 7 
  save head
  save budget

period 1 step 9 
  save head
  save budget

period 1 step 11 
  save head
  save budget

period 1 step 13 
  save head
  save budget

period 1 step 15 
  save head
  save budget

period 1 step 17 
  save head
  save budget

period 1 step 19 
  save head
  save budget

period 1 step 21 
  save head
  save budget

period 1 step 23 
  save head
  save budget

period 1 step 25 
  save head
  save budget

period 1 step 27 
  save head
  save budget

period 1 step 29 
  save head
  save budget

period 1 step 31 
  save head
  save budget

period 1 step 33 
  save head
  save budget

period 1 step 35 
  save head
  save budget

period 1 step 37 
  save head
  save budget

period 1 step 39 
  save head
  save budget

period 1 step 41 
  save head
  save budget

period 1 step 43 
  save head
  save budget

period 1 step 45 
  save head
  save budget

period 1 step 47 
  save head
  save budget

period 1 step 49 
  save head
  save budget

period 1 step 51 
  save head
  save budget

period 1 step 53 
  save head
  save budget

period 1 step 55 
  save head
  save budget

period 1 step 57 
  save head
  save budget

period 1 step 59 
  save head
  save budget

period 1 step 61 
  save head
  save budget

period 1 step 63 
  save head
  save budget

period 1 step 65 
  save head
  save budget

period 1 step 67 
  save head
  save budget

period 1 step 69 
  save head
  save budget

period 1 step 71 
  save head
  save budget

period 1 step 73 
  save head
  save budget

period 1 step 75 
  save head
  save budget

period 1 step 77 
  save head
  save budget

period 1 step 79 
  save head
  save budget

period 1 step 81 
  save head
  save budget

period 1 step 83 
  save head
  save budget

period 1 step 85 
  save head
  save budget

period 1 step 87 
  save head
  save budget

period 1 step 89 
  save head
  save budget

period 1 step 91 
  save head
  save budget

period 1 step 93 
  save head
  save budget

period 1 step 95 
  save head
  save budget

period 1 step 97 
  save head
  save budget

period 1 step 99 
  save head
  save budget

period 1 step 101 
  save head
  save budget

period 1 step 103 
  save head
  save budget

period 1 step 105 
  save head
  save budget

period 1 step 107 
  save head
  save budget

period 1 step 109 
  save head
  save budget

period 1 step 111 
  save head
  save budget

period 1 step 113 
  save head
  save budget

period 1 step 115 
  save head
  save budget

period 1 step 117 
  save head
  save budget

period 1 step 119 
  save head
  save budget

period 1 step 121 
  save head
  save budget

period 1 step 123 
  save head
  save budget

period 1 step 125 
  save head
  save budget

period 1 step 127 
  save head
  save budget

period 1 step 129 
  save head
  save budget

period 1 step 131 
  save head
  save budget

period 1 step 133 
  save head
  save budget

period 1 step 135 
  save head
  save budget

period 1 step 137 
  save head
  save budget

period 1 step 139 
  save head
  save budget

period 1 step 141 
  save head
  save budget

period 1 step 143 
  save head
  save budget

period 1 step 145 
  save head
  save budget

period 1 step 147 
  save head
  save budget

period 1 step 149 
  save head
  save budget

period 1 step 151 
  save head
  save budget

period 1 step 153 
  save head
  save budget

period 1 step 155 
  save head
  save budget

period 1 step 157 
  save head
  save budget

period 1 step 159 
  save head
  save budget

period 1 step 161 
  save head
  save budget

period 1 step 163 
  save head
  save budget

period 1 step 165 
  save head
  save budget

period 1 step 167 
  save head
  save budget

period 1 step 169 
  save head
  save budget

period 1 step 171 
  save head
  save budget

period 1 step 173 
  save head
  save budget

period 1 step 175 
  save head
  save budget

period 1 step 177 
  save head
  save budget

period 1 step 179 
  save head
  save budget

period 1 step 181 
  save head
  save budget

period 1 step 183 
  save head
  save budget

period 1 step 185 
  save head
  save budget

period 1 step 187 
  save head
  save budget

period 1 step 189 
  save head
  save budget

period 1 step 191 
  save head
  save budget

period 1 step 193 
  save head
  save budget

period 1 step 195 
  save head
  save budget

period 1 step 197 
  save head
  save budget

period 1 step 199 
  save head
  save budget

