# BAS6 package for MODFLOW-2000 generated by Flopy 3.9.3
FREE
INTERNAL               1    (50I10) -1 #ibound layer 1                
         1         1         1         1         1         1         1         1         1         1         1         1         1         1         1         1         1         1         1         1         1         1         1         1         1         1         1         1         1         1         1         1         1         1         1         1         1         1         1         1         1         1         1         1         1         1         1         1         1        -1
         1         1         1         1         1         1         1         1         1         1         1         1         1         1         1         1         1         1         1         1         1         1         1         1         1         1         1         1         1         1         1         1         1         1         1         1         1         1         1         1         1         1         1         1         1         1         1         1         1        -1
         1         1         1         1         1         1         1         1         1         1         1         1         1         1         1         1         1         1         1         1         1         1         1         1         1         1         1         1         1         1         1         1         1         1         1         1         1         1         1         1         1         1         1         1         1         1         1         1         1        -1
         1         1         1         1         1         1         1         1         1         1         1         1         1         1         1         1         1         1         1         1         1         1         1         1         1         1         1         1         1         1         1         1         1         1         1         1         1         1         1         1         1         1         1         1         1         1         1         1         1        -1
         1         1         1         1         1         1         1         1         1         1         1         1         1         1         1         1         1         1         1         1         1         1         1         1         1         1         1         1         1         1         1         1         1         1         1         1         1         1         1         1         1         1         1         1         1         1         1         1         1        -1
         1         1         1         1         1         1         1         1         1         1         1         1         1         1         1         1         1         1         1         1         1         1         1         1         1         1         1         1         1         1         1         1         1         1         1         1         1         1         1         1         1         1         1         1         1         1         1         1         1        -1
         1         1         1         1         1         1         1         1         1         1         1         1         1         1         1         1         1         1         1         1         1         1         1         1         1         1         1         1         1         1         1         1         1         1         1         1         1         1         1         1         1         1         1         1         1         1         1         1         1        -1
         1         1         1         1         1         1         1         1         1         1         1         1         1         1         1         1         1         1         1         1         1         1         1         1         1         1         1         1         1         1         1         1         1         1         1         1         1         1         1         1         1         1         1         1         1         1         1         1         1        -1
         1         1         1         1         1         1         1         1         1         1         1         1         1         1         1         1         1         1         1         1         1         1         1         1         1         1         1         1         1         1         1         1         1         1         1         1         1         1         1         1         1         1         1         1         1         1         1         1         1        -1
         1         1         1         1         1         1         1         1         1         1         1         1         1         1         1         1         1         1         1         1         1         1         1         1         1         1         1         1         1         1         1         1         1         1         1         1         1         1         1         1         1         1         1         1         1         1         1         1         1        -1
         1         1         1         1         1         1         1         1         1         1         1         1         1         1         1         1         1         1         1         1         1         1         1         1         1         1         1         1         1         1         1         1         1         1         1         1         1         1         1         1         1         1         1         1         1         1         1         1         1        -1
         1         1         1         1         1         1         1         1         1         1         1         1         1         1         1         1         1         1         1         1         1         1         1         1         1         1         1         1         1         1         1         1         1         1         1         1         1         1         1         1         1         1         1         1         1         1         1         1         1        -1
         1         1         1         1         1         1         1         1         1         1         1         1         1         1         1         1         1         1         1         1         1         1         1         1         1         1         1         1         1         1         1         1         1         1         1         1         1         1         1         1         1         1         1         1         1         1         1         1         1        -1
         1         1         1         1         1         1         1         1         1         1         1         1         1         1         1         1         1         1         1         1         1         1         1         1         1         1         1         1         1         1         1         1         1         1         1         1         1         1         1         1         1         1         1         1         1         1         1         1         1        -1
         1         1         1         1         1         1         1         1         1         1         1         1         1         1         1         1         1         1         1         1         1         1         1         1         1         1         1         1         1         1         1         1         1         1         1         1         1         1         1         1         1         1         1         1         1         1         1         1         1        -1
         1         1         1         1         1         1         1         1         1         1         1         1         1         1         1         1         1         1         1         1         1         1         1         1         1         1         1         1         1         1         1         1         1         1         1         1         1         1         1         1         1         1         1         1         1         1         1         1         1        -1
         1         1         1         1         1         1         1         1         1         1         1         1         1         1         1         1         1         1         1         1         1         1         1         1         1         1         1         1         1         1         1         1         1         1         1         1         1         1         1         1         1         1         1         1         1         1         1         1         1        -1
         1         1         1         1         1         1         1         1         1         1         1         1         1         1         1         1         1         1         1         1         1         1         1         1         1         1         1         1         1         1         1         1         1         1         1         1         1         1         1         1         1         1         1         1         1         1         1         1         1        -1
         1         1         1         1         1         1         1         1         1         1         1         1         1         1         1         1         1         1         1         1         1         1         1         1         1         1         1         1         1         1         1         1         1         1         1         1         1         1         1         1         1         1         1         1         1         1         1         1         1        -1
         1         1         1         1         1         1         1         1         1         1         1         1         1         1         1         1         1         1         1         1         1         1         1         1         1         1         1         1         1         1         1         1         1         1         1         1         1         1         1         1         1         1         1         1         1         1         1         1         1        -1
         1         1         1         1         1         1         1         1         1         1         1         1         1         1         1         1         1         1         1         1         1         1         1         1         1         1         1         1         1         1         1         1         1         1         1         1         1         1         1         1         1         1         1         1         1         1         1         1         1        -1
         1         1         1         1         1         1         1         1         1         1         1         1         1         1         1         1         1         1         1         1         1         1         1         1         1         1         1         1         1         1         1         1         1         1         1         1         1         1         1         1         1         1         1         1         1         1         1         1         1        -1
         1         1         1         1         1         1         1         1         1         1         1         1         1         1         1         1         1         1         1         1         1         1         1         1         1         1         1         1         1         1         1         1         1         1         1         1         1         1         1         1         1         1         1         1         1         1         1         1         1        -1
         1         1         1         1         1         1         1         1         1         1         1         1         1         1         1         1         1         1         1         1         1         1         1         1         1         1         1         1         1         1         1         1         1         1         1         1         1         1         1         1         1         1         1         1         1         1         1         1         1        -1
         1         1         1         1         1         1         1         1         1         1         1         1         1         1         1         1         1         1         1         1         1         1         1         1         1         1         1         1         1         1         1         1         1         1         1         1         1         1         1         1         1         1         1         1         1         1         1         1         1        -1
         1         1         1         1         1         1         1         1         1         1         1         1         1         1         1         1         1         1         1         1         1         1         1         1         1         1         1         1         1         1         1         1         1         1         1         1         1         1         1         1         1         1         1         1         1         1         1         1         1        -1
         1         1         1         1         1         1         1         1         1         1         1         1         1         1         1         1         1         1         1         1         1         1         1         1         1         1         1         1         1         1         1         1         1         1         1         1         1         1         1         1         1         1         1         1         1         1         1         1         1        -1
         1         1         1         1         1         1         1         1         1         1         1         1         1         1         1         1         1         1         1         1         1         1         1         1         1         1         1         1         1         1         1         1         1         1         1         1         1         1         1         1         1         1         1         1         1         1         1         1         1        -1
         1         1         1         1         1         1         1         1         1         1         1         1         1         1         1         1         1         1         1         1         1         1         1         1         1         1         1         1         1         1         1         1         1         1         1         1         1         1         1         1         1         1         1         1         1         1         1         1         1        -1
         1         1         1         1         1         1         1         1         1         1         1         1         1         1         1         1         1         1         1         1         1         1         1         1         1         1         1         1         1         1         1         1         1         1         1         1         1         1         1         1         1         1         1         1         1         1         1         1         1        -1
         1         1         1         1         1         1         1         1         1         1         1         1         1         1         1         1         1         1         1         1         1         1         1         1         1         1         1         1         1         1         1         1         1         1         1         1         1         1         1         1         1         1         1         1         1         1         1         1         1        -1
         1         1         1         1         1         1         1         1         1         1         1         1         1         1         1         1         1         1         1         1         1         1         1         1         1         1         1         1         1         1         1         1         1         1         1         1         1         1         1         1         1         1         1         1         1         1         1         1         1        -1
         1         1         1         1         1         1         1         1         1         1         1         1         1         1         1         1         1         1         1         1         1         1         1         1         1         1         1         1         1         1         1         1         1         1         1         1         1         1         1         1         1         1         1         1         1         1         1         1         1        -1
         1         1         1         1         1         1         1         1         1         1         1         1         1         1         1         1         1         1         1         1         1         1         1         1         1         1         1         1         1         1         1         1         1         1         1         1         1         1         1         1         1         1         1         1         1         1         1         1         1        -1
         1         1         1         1         1         1         1         1         1         1         1         1         1         1         1         1         1         1         1         1         1         1         1         1         1         1         1         1         1         1         1         1         1         1         1         1         1         1         1         1         1         1         1         1         1         1         1         1         1        -1
         1         1         1         1         1         1         1         1         1         1         1         1         1         1         1         1         1         1         1         1         1         1         1         1         1         1         1         1         1         1         1         1         1         1         1         1         1         1         1         1         1         1         1         1         1         1         1         1         1        -1
         1         1         1         1         1         1         1         1         1         1         1         1         1         1         1         1         1         1         1         1         1         1         1         1         1         1         1         1         1         1         1         1         1         1         1         1         1         1         1         1         1         1         1         1         1         1         1         1         1        -1
         1         1         1         1         1         1         1         1         1         1         1         1         1         1         1         1         1         1         1         1         1         1         1         1         1         1         1         1         1         1         1         1         1         1         1         1         1         1         1         1         1         1         1         1         1         1         1         1         1        -1
         1         1         1         1         1         1         1         1         1         1         1         1         1         1         1         1         1         1         1         1         1         1         1         1         1         1         1         1         1         1         1         1         1         1         1         1         1         1         1         1         1         1         1         1         1         1         1         1         1        -1
         1         1         1         1         1         1         1         1         1         1         1         1         1         1         1         1         1         1         1         1         1         1         1         1         1         1         1         1         1         1         1         1         1         1         1         1         1         1         1         1         1         1         1         1         1         1         1         1         1        -1
   -999.99
INTERNAL               1  (50E15.6) -1 #strt layer 1                  
   1.797222E+02   1.796999E+02   1.796554E+02   1.795886E+02   1.794995E+02   1.793880E+02   1.792542E+02   1.790979E+02   1.789191E+02   1.787178E+02   1.784939E+02   1.782472E+02   1.779777E+02   1.776853E+02   1.773698E+02   1.770312E+02   1.766694E+02   1.762840E+02   1.758751E+02   1.754425E+02   1.749859E+02   1.745052E+02   1.740002E+02   1.734706E+02   1.729164E+02   1.723371E+02   1.717325E+02   1.711025E+02   1.704467E+02   1.697647E+02   1.690564E+02   1.683213E+02   1.675591E+02   1.667695E+02   1.659520E+02   1.651062E+02   1.642317E+02   1.633281E+02   1.623947E+02   1.614313E+02   1.604371E+02   1.594116E+02   1.583542E+02   1.572642E+02   1.561411E+02   1.549839E+02   1.537921E+02   1.525648E+02   1.513011E+02   1.500000E+02
   1.797222E+02   1.796999E+02   1.796554E+02   1.795886E+02   1.794995E+02   1.793880E+02   1.792542E+02   1.790979E+02   1.789191E+02   1.787178E+02   1.784939E+02   1.782472E+02   1.779777E+02   1.776853E+02   1.773698E+02   1.770312E+02   1.766694E+02   1.762840E+02   1.758751E+02   1.754425E+02   1.749859E+02   1.745052E+02   1.740002E+02   1.734707E+02   1.729164E+02   1.723371E+02   1.717325E+02   1.711025E+02   1.704467E+02   1.697647E+02   1.690564E+02   1.683213E+02   1.675591E+02   1.667695E+02   1.659520E+02   1.651062E+02   1.642317E+02   1.633281E+02   1.623947E+02   1.614313E+02   1.604371E+02   1.594116E+02   1.583542E+02   1.572642E+02   1.561411E+02   1.549839E+02   1.537921E+02   1.525648E+02   1.513011E+02   1.500000E+02
   1.797222E+02   1.796999E+02   1.796554E+02   1.795886E+02   1.794995E+02   1.793880E+02   1.792542E+02   1.790979E+02   1.789191E+02   1.787178E+02   1.784939E+02   1.782472E+02   1.779777E+02   1.776853E+02   1.773698E+02   1.770312E+02   1.766694E+02   1.762840E+02   1.758751E+02   1.754425E+02   1.749859E+02   1.745052E+02   1.740002E+02   1.734707E+02   1.729164E+02   1.723371E+02   1.717325E+02   1.711025E+02   1.704467E+02   1.697647E+02   1.690564E+02   1.683213E+02   1.675591E+02   1.667695E+02   1.659520E+02   1.651062E+02   1.642317E+02   1.633281E+02   1.623947E+02   1.614313E+02   1.604371E+02   1.594116E+02   1.583542E+02   1.572642E+02   1.561411E+02   1.549839E+02   1.537921E+02   1.525648E+02   1.513010E+02   1.500000E+02
   1.797222E+02   1.796999E+02   1.796554E+02   1.795886E+02   1.794995E+02   1.793880E+02   1.792542E+02   1.790979E+02   1.789191E+02   1.787178E+02   1.784939E+02   1.782472E+02   1.779777E+02   1.776853E+02   1.773698E+02   1.770312E+02   1.766694E+02   1.762840E+02   1.758751E+02   1.754425E+02   1.749859E+02   1.745052E+02   1.740002E+02   1.734707E+02   1.729164E+02   1.723371E+02   1.717325E+02   1.711025E+02   1.704467E+02   1.697647E+02   1.690564E+02   1.683213E+02   1.675591E+02   1.667695E+02   1.659520E+02   1.651062E+02   1.642317E+02   1.633281E+02   1.623947E+02   1.614313E+02   1.604370E+02   1.594116E+02   1.583542E+02   1.572642E+02   1.561411E+02   1.549839E+02   1.537921E+02   1.525648E+02   1.513010E+02   1.500000E+02
   1.797222E+02   1.796999E+02   1.796554E+02   1.795886E+02   1.794995E+02   1.793880E+02   1.792542E+02   1.790979E+02   1.789191E+02   1.787178E+02   1.784939E+02   1.782472E+02   1.779777E+02   1.776853E+02   1.773698E+02   1.770312E+02   1.766694E+02   1.762840E+02   1.758751E+02   1.754425E+02   1.749859E+02   1.745052E+02   1.740002E+02   1.734707E+02   1.729164E+02   1.723371E+02   1.717325E+02   1.711025E+02   1.704467E+02   1.697647E+02   1.690564E+02   1.683213E+02   1.675591E+02   1.667695E+02   1.659520E+02   1.651062E+02   1.642317E+02   1.633281E+02   1.623947E+02   1.614313E+02   1.604370E+02   1.594116E+02   1.583542E+02   1.572642E+02   1.561411E+02   1.549839E+02   1.537921E+02   1.525648E+02   1.513010E+02   1.500000E+02
   1.797222E+02   1.796999E+02   1.796554E+02   1.795886E+02   1.794995E+02   1.793880E+02   1.792542E+02   1.790979E+02   1.789191E+02   1.787178E+02   1.784939E+02   1.782472E+02   1.779777E+02   1.776853E+02   1.773698E+02   1.770312E+02   1.766694E+02   1.762840E+02   1.758751E+02   1.754425E+02   1.749859E+02   1.745052E+02   1.740002E+02   1.734707E+02   1.729164E+02   1.723371E+02   1.717325E+02   1.711025E+02   1.704467E+02   1.697647E+02   1.690564E+02   1.683213E+02   1.675591E+02   1.667695E+02   1.659520E+02   1.651062E+02   1.642317E+02   1.633281E+02   1.623947E+02   1.614313E+02   1.604370E+02   1.594115E+02   1.583542E+02   1.572642E+02   1.561411E+02   1.549839E+02   1.537921E+02   1.525648E+02   1.513010E+02   1.500000E+02
   1.797222E+02   1.796999E+02   1.796554E+02   1.795886E+02   1.794995E+02   1.793880E+02   1.792542E+02   1.790979E+02   1.789191E+02   1.787178E+02   1.784939E+02   1.782472E+02   1.779777E+02   1.776853E+02   1.773698E+02   1.770312E+02   1.766694E+02   1.762840E+02   1.758751E+02   1.754425E+02   1.749859E+02   1.745052E+02   1.740002E+02   1.734707E+02   1.729164E+02   1.723371E+02   1.717325E+02   1.711025E+02   1.704467E+02   1.697647E+02   1.690564E+02   1.683213E+02   1.675591E+02   1.667695E+02   1.659520E+02   1.651062E+02   1.642317E+02   1.633281E+02   1.623947E+02   1.614313E+02   1.604370E+02   1.594115E+02   1.583542E+02   1.572642E+02   1.561411E+02   1.549839E+02   1.537921E+02   1.525648E+02   1.513010E+02   1.500000E+02
   1.797222E+02   1.796999E+02   1.796554E+02   1.795886E+02   1.794995E+02   1.793880E+02   1.792542E+02   1.790979E+02   1.789191E+02   1.787178E+02   1.784939E+02   1.782472E+02   1.779777E+02   1.776853E+02   1.773698E+02   1.770312E+02   1.766694E+02   1.762840E+02   1.758751E+02   1.754425E+02   1.749859E+02   1.745052E+02   1.740002E+02   1.734707E+02   1.729164E+02   1.723371E+02   1.717325E+02   1.711025E+02   1.704467E+02   1.697647E+02   1.690564E+02   1.683213E+02   1.675591E+02   1.667695E+02   1.659520E+02   1.651062E+02   1.642317E+02   1.633281E+02   1.623947E+02   1.614313E+02   1.604370E+02   1.594115E+02   1.583542E+02   1.572642E+02   1.561411E+02   1.549839E+02   1.537921E+02   1.525648E+02   1.513010E+02   1.500000E+02
   1.797222E+02   1.796999E+02   1.796554E+02   1.795886E+02   1.794995E+02   1.793880E+02   1.792542E+02   1.790979E+02   1.789192E+02   1.787178E+02   1.784939E+02   1.782472E+02   1.779777E+02   1.776853E+02   1.773699E+02   1.770312E+02   1.766694E+02   1.762840E+02   1.758751E+02   1.754425E+02   1.749859E+02   1.745052E+02   1.740002E+02   1.734706E+02   1.729164E+02   1.723371E+02   1.717325E+02   1.711025E+02   1.704467E+02   1.697647E+02   1.690564E+02   1.683213E+02   1.675591E+02   1.667695E+02   1.659520E+02   1.651062E+02   1.642317E+02   1.633281E+02   1.623947E+02   1.614313E+02   1.604370E+02   1.594115E+02   1.583542E+02   1.572642E+02   1.561411E+02   1.549839E+02   1.537921E+02   1.525648E+02   1.513010E+02   1.500000E+02
   1.797222E+02   1.796999E+02   1.796554E+02   1.795886E+02   1.794995E+02   1.793880E+02   1.792542E+02   1.790979E+02   1.789192E+02   1.787178E+02   1.784939E+02   1.782472E+02   1.779777E+02   1.776853E+02   1.773699E+02   1.770312E+02   1.766694E+02   1.762840E+02   1.758751E+02   1.754425E+02   1.749859E+02   1.745052E+02   1.740002E+02   1.734706E+02   1.729164E+02   1.723371E+02   1.717325E+02   1.711025E+02   1.704467E+02   1.697647E+02   1.690564E+02   1.683213E+02   1.675591E+02   1.667695E+02   1.659520E+02   1.651062E+02   1.642317E+02   1.633281E+02   1.623947E+02   1.614313E+02   1.604370E+02   1.594116E+02   1.583542E+02   1.572642E+02   1.561411E+02   1.549839E+02   1.537921E+02   1.525648E+02   1.513010E+02   1.500000E+02
   1.797222E+02   1.796999E+02   1.796554E+02   1.795886E+02   1.794995E+02   1.793880E+02   1.792542E+02   1.790979E+02   1.789192E+02   1.787178E+02   1.784939E+02   1.782472E+02   1.779777E+02   1.776853E+02   1.773699E+02   1.770312E+02   1.766694E+02   1.762840E+02   1.758751E+02   1.754425E+02   1.749859E+02   1.745052E+02   1.740002E+02   1.734706E+02   1.729164E+02   1.723371E+02   1.717325E+02   1.711025E+02   1.704467E+02   1.697647E+02   1.690564E+02   1.683213E+02   1.675591E+02   1.667695E+02   1.659520E+02   1.651062E+02   1.642317E+02   1.633281E+02   1.623947E+02   1.614313E+02   1.604370E+02   1.594116E+02   1.583542E+02   1.572642E+02   1.561411E+02   1.549839E+02   1.537921E+02   1.525648E+02   1.513010E+02   1.500000E+02
   1.797222E+02   1.796999E+02   1.796554E+02   1.795886E+02   1.794995E+02   1.793880E+02   1.792542E+02   1.790979E+02   1.789192E+02   1.787178E+02   1.784939E+02   1.782472E+02   1.779777E+02   1.776853E+02   1.773699E+02   1.770312E+02   1.766694E+02   1.762840E+02   1.758751E+02   1.754425E+02   1.749859E+02   1.745052E+02   1.740002E+02   1.734706E+02   1.729164E+02   1.723371E+02   1.717325E+02   1.711025E+02   1.704467E+02   1.697647E+02   1.690564E+02   1.683213E+02   1.675591E+02   1.667695E+02   1.659520E+02   1.651062E+02   1.642317E+02   1.633280E+02   1.623947E+02   1.614313E+02   1.604370E+02   1.594116E+02   1.583542E+02   1.572642E+02   1.561411E+02   1.549839E+02   1.537921E+02   1.525648E+02   1.513010E+02   1.500000E+02