# WEL package for MODFLOW-2000 generated by Flopy 3.9.3
         1        53 
         1         0 # stress period 1
         1        21        42     -8000
