
MODPATH - Version 6.0.01  August 24, 2012                 
U.S. GEOLOGICAL SURVEY PARTICLE TRACKING MODEL FOR MODFLOW

Simulation File: biglake_mp.mpnam                                                                                                                                                                                        
 # Name file for MODPATH, generated by Flopy version 3.9.3.
