# Name file for MODFLOW-2000, generated by Flopy version 3.9.3.
#xll:0.0; yll:0.0; rotation:0.0; units:feet; lenuni:1; start_datetime:1-1-1970
GLOBAL           701  biglake.glo
LIST             702  biglake.out
DIS              719  biglake.dis
BAS6             703  biglake.ba6
LPF              704  biglake.lpf
OC               715  biglake.oc
RCH              716  biglake.rch
RIV              708  biglake.riv
WEL              709  biglake.wel
GHB              711  biglake.ghb
PCG              714  biglake.pcg
DATA(BINARY)     740  biglake.ccf REPLACE
DATA(BINARY)     730  biglake.hed REPLACE
