# PCG package for MODFLOW-2000 generated by Flopy 3.9.3
25 50 1 0
0.01 0.01 1.0 0 0 2 1.0 
