# LPF package for MODFLOW-2000 generated by Flopy 3.9.3
       740      -888         0  
         1
         0
  -1.000000E+00
         1
         0
INTERNAL               1     (FREE) -1 #hk                            
   0.000000E+00   0.000000E+00   0.000000E+00   0.000000E+00   0.000000E+00   0.000000E+00   0.000000E+00   0.000000E+00   0.000000E+00   0.000000E+00   0.000000E+00   0.000000E+00   0.000000E+00   0.000000E+00   0.000000E+00   0.000000E+00   0.000000E+00   0.000000E+00   0.000000E+00   0.000000E+00   0.000000E+00   0.000000E+00   0.000000E+00   0.000000E+00   0.000000E+00   0.000000E+00   0.000000E+00   0.000000E+00   0.000000E+00   0.000000E+00   0.000000E+00   0.000000E+00   0.000000E+00   0.000000E+00   0.000000E+00   0.000000E+00   0.000000E+00   0.000000E+00   0.000000E+00   0.000000E+00   0.000000E+00   0.000000E+00   0.000000E+00   0.000000E+00   0.000000E+00   0.000000E+00   0.000000E+00   0.000000E+00   0.000000E+00   0.000000E+00   0.000000E+00   0.000000E+00   0.000000E+00   0.000000E+00   0.000000E+00   0.000000E+00   0.000000E+00   0.000000E+00   0.000000E+00   0.000000E+00   0.000000E+00   0.000000E+00   0.000000E+00   0.000000E+00   0.000000E+00   0.000000E+00   0.000000E+00   0.000000E+00   0.000000E+00   0.000000E+00   0.000000E+00   0.000000E+00   0.000000E+00   0.000000E+00   0.000000E+00   0.000000E+00   0.000000E+00   0.000000E+00   0.000000E+00   0.000000E+00   0.000000E+00   0.000000E+00   0.000000E+00   0.000000E+00   0.000000E+00   0.000000E+00   0.000000E+00   0.000000E+00   0.000000E+00   0.000000E+00   0.000000E+00   0.000000E+00   0.000000E+00   0.000000E+00   0.000000E+00   0.000000E+00   0.000000E+00   0.000000E+00   0.000000E+00   0.000000E+00   0.000000E+00   0.000000E+00   0.000000E+00   0.000000E+00   0.000000E+00   0.000000E+00   0.000000E+00   0.000000E+00   0.000000E+00   0.000000E+00   0.000000E+00   0.000000E+00   0.000000E+00   0.000000E+00   0.000000E+00   0.000000E+00   0.000000E+00   0.000000E+00   0.000000E+00   0.000000E+00   0.000000E+00   0.000000E+00   0.000000E+00   0.000000E+00   0.000000E+00   0.000000E+00   0.000000E+00   0.000000E+00
   0.000000E+00   0.000000E+00   0.000000E+00   0.000000E+00   0.000000E+00   0.000000E+00   0.000000E+00   0.000000E+00   0.000000E+00   0.000000E+00   0.000000E+00   0.000000E+00   0.000000E+00   0.000000E+00   0.000000E+00   0.000000E+00   0.000000E+00   0.000000E+00   0.000000E+00   0.000000E+00   0.000000E+00   0.000000E+00   0.000000E+00   0.000000E+00   0.000000E+00   0.000000E+00   0.000000E+00   0.000000E+00   0.000000E+00   0.000000E+00   0.000000E+00   0.000000E+00   0.000000E+00   0.000000E+00   0.000000E+00   0.000000E+00   0.000000E+00   0.000000E+00   0.000000E+00   0.000000E+00   0.000000E+00   0.000000E+00   0.000000E+00   0.000000E+00   0.000000E+00   0.000000E+00   0.000000E+00   0.000000E+00   0.000000E+00   0.000000E+00   0.000000E+00   0.000000E+00   0.000000E+00   0.000000E+00   0.000000E+00   0.000000E+00   0.000000E+00   0.000000E+00   0.000000E+00   0.000000E+00   0.000000E+00   0.000000E+00   0.000000E+00   0.000000E+00   0.000000E+00   0.000000E+00   0.000000E+00   0.000000E+00   2.000000E+00   2.000000E+00   2.000000E+00   2.000000E+00   2.000000E+00   2.000000E+00   2.000000E+00   2.000000E+00   2.000000E+00   2.000000E+00   2.000000E+00   2.000000E+00   2.000000E+00   2.000000E+00   2.000000E+00   2.000000E+00   2.000000E+00   2.000000E+00   0.000000E+00   0.000000E+00   0.000000E+00   0.000000E+00   0.000000E+00   0.000000E+00   0.000000E+00   0.000000E+00   0.000000E+00   0.000000E+00   0.000000E+00   0.000000E+00   0.000000E+00   0.000000E+00   0.000000E+00   0.000000E+00   0.000000E+00   0.000000E+00   0.000000E+00   0.000000E+00   0.000000E+00   0.000000E+00   0.000000E+00   0.000000E+00   0.000000E+00   0.000000E+00   0.000000E+00   0.000000E+00   0.000000E+00   0.000000E+00   0.000000E+00   0.000000E+00   0.000000E+00   0.000000E+00   0.000000E+00   0.000000E+00   0.000000E+00   0.000000E+00   0.000000E+00   0.000000E+00   0.000000E+00   0.000000E+00
   0.000000E+00   0.000000E+00   0.000000E+00   0.000000E+00   0.000000E+00   0.000000E+00   0.000000E+00   0.000000E+00   0.000000E+00   0.000000E+00   0.000000E+00   0.000000E+00   0.000000E+00   0.000000E+00   0.000000E+00   0.000000E+00   0.000000E+00   0.000000E+00   0.000000E+00   0.000000E+00   0.000000E+00   0.000000E+00   0.000000E+00   0.000000E+00   0.000000E+00   0.000000E+00   0.000000E+00   0.000000E+00   0.000000E+00   0.000000E+00   0.000000E+00   0.000000E+00   0.000000E+00   0.000000E+00   0.000000E+00   0.000000E+00   0.000000E+00   0.000000E+00   0.000000E+00   0.000000E+00   0.000000E+00   0.000000E+00   0.000000E+00   0.000000E+00   0.000000E+00   0.000000E+00   0.000000E+00   0.000000E+00   0.000000E+00   0.000000E+00   0.000000E+00   0.000000E+00   0.000000E+00   0.000000E+00   0.000000E+00   0.000000E+00   0.000000E+00   0.000000E+00   0.000000E+00   0.000000E+00   2.000000E+00   2.000000E+00   2.000000E+00   2.000000E+00   2.000000E+00   2.000000E+00   2.000000E+00   2.000000E+00   2.000000E+00   2.000000E+00   2.000000E+00   2.000000E+00   2.000000E+00   2.000000E+00   2.000000E+00   2.000000E+00   2.000000E+00   2.000000E+00   2.000000E+00   2.000000E+00   2.000000E+00   2.000000E+00   2.000000E+00   2.000000E+00   2.000000E+00   2.000000E+00   2.000000E+00   2.000000E+00   2.000000E+00   2.000000E+00   2.000000E+00   0.000000E+00   0.000000E+00   0.000000E+00   0.000000E+00   0.000000E+00   0.000000E+00   0.000000E+00   0.000000E+00   0.000000E+00   0.000000E+00   0.000000E+00   0.000000E+00   0.000000E+00   0.000000E+00   0.000000E+00   0.000000E+00   0.000000E+00   0.000000E+00   0.000000E+00   0.000000E+00   0.000000E+00   0.000000E+00   0.000000E+00   0.000000E+00   0.000000E+00   0.000000E+00   0.000000E+00   0.000000E+00   0.000000E+00   0.000000E+00   0.000000E+00   0.000000E+00   0.000000E+00   0.000000E+00   0.000000E+00   0.000000E+00   0.000000E+00
   0.000000E+00   0.000000E+00   0.000000E+00   0.000000E+00   0.000000E+00   0.000000E+00   0.000000E+00   0.000000E+00   0.000000E+00   0.000000E+00   0.000000E+00   0.000000E+00   0.000000E+00   0.000000E+00   0.000000E+00   0.000000E+00   0.000000E+00   0.000000E+00   0.000000E+00   0.000000E+00   0.000000E+00   0.000000E+00   0.000000E+00   0.000000E+00   0.000000E+00   0.000000E+00   0.000000E+00   0.000000E+00   0.000000E+00   0.000000E+00   0.000000E+00   0.000000E+00   0.000000E+00   0.000000E+00   0.000000E+00   0.000000E+00   0.000000E+00   0.000000E+00   0.000000E+00   0.000000E+00   0.000000E+00   0.000000E+00   0.000000E+00   0.000000E+00   0.000000E+00   0.000000E+00   0.000000E+00   0.000000E+00   0.000000E+00   0.000000E+00   0.000000E+00   0.000000E+00   0.000000E+00   0.000000E+00   0.000000E+00   2.000000E+00   2.000000E+00   2.000000E+00   2.000000E+00   2.000000E+00   2.000000E+00   2.000000E+00   2.000000E+00   2.000000E+00   2.000000E+00   2.000000E+00   2.000000E+00   2.000000E+00   2.000000E+00   2.000000E+00   2.000000E+00   2.000000E+00   2.000000E+00   2.000000E+00   2.000000E+00   2.000000E+00   2.000000E+00   2.000000E+00   2.000000E+00   2.000000E+00   2.000000E+00   2.000000E+00   2.000000E+00   2.000000E+00   2.000000E+00   2.000000E+00   2.000000E+00   2.000000E+00   2.000000E+00   2.000000E+00   2.000000E+00   2.000000E+00   2.000000E+00   2.000000E+00   0.000000E+00   0.000000E+00   0.000000E+00   0.000000E+00   0.000000E+00   0.000000E+00   0.000000E+00   0.000000E+00   0.000000E+00   0.000000E+00   0.000000E+00   0.000000E+00   0.000000E+00   0.000000E+00   0.000000E+00   0.000000E+00   0.000000E+00   0.000000E+00   0.000000E+00   0.000000E+00   0.000000E+00   0.000000E+00   0.000000E+00   0.000000E+00   0.000000E+00   0.000000E+00   0.000000E+00   0.000000E+00   0.000000E+00   0.000000E+00   0.000000E+00   0.000000E+00   0.000000E+00   0.000000E+00
   0.000000E+00   0.000000E+00   0.000000E+00   0.000000E+00   0.000000E+00   0.000000E+00   0.000000E+00   0.000000E+00   0.000000E+00   0.000000E+00   0.000000E+00   0.000000E+00   0.000000E+00   0.000000E+00   0.000000E+00   0.000000E+00   0.000000E+00   0.000000E+00   0.000000E+00   0.000000E+00   0.000000E+00   0.000000E+00   0.000000E+00   0.000000E+00   0.000000E+00   0.000000E+00   0.000000E+00   0.000000E+00   0.000000E+00   0.000000E+00   0.000000E+00   0.000000E+00   0.000000E+00   0.000000E+00   0.000000E+00   0.000000E+00   0.000000E+00   0.000000E+00   0.000000E+00   0.000000E+00   0.000000E+00   0.000000E+00   0.000000E+00   0.000000E+00   0.000000E+00   0.000000E+00   0.000000E+00   0.000000E+00   0.000000E+00   0.000000E+00   0.000000E+00   0.000000E+00   2.000000E+00   2.000000E+00   2.000000E+00   2.000000E+00   2.000000E+00   2.000000E+00   2.000000E+00   2.000000E+00   2.000000E+00   2.000000E+00   2.000000E+00   2.000000E+00   2.000000E+00   2.000000E+00   2.000000E+00   2.000000E+00   2.000000E+00   2.000000E+00   2.000000E+00   2.000000E+00   2.000000E+00   2.000000E+00   2.000000E+00   2.000000E+00   2.000000E+00   2.000000E+00   2.000000E+00   2.000000E+00   2.000000E+00   2.000000E+00   2.000000E+00   2.000000E+00   2.000000E+00   2.000000E+00   2.000000E+00   2.000000E+00   2.000000E+00   2.000000E+00   2.000000E+00   2.000000E+00   2.000000E+00   2.000000E+00   2.000000E+00   2.000000E+00   2.000000E+00   0.000000E+00   0.000000E+00   0.000000E+00   0.000000E+00   0.000000E+00   0.000000E+00   0.000000E+00   0.000000E+00   0.000000E+00   0.000000E+00   0.000000E+00   0.000000E+00   0.000000E+00   0.000000E+00   0.000000E+00   0.000000E+00   0.000000E+00   0.000000E+00   0.000000E+00   0.000000E+00   0.000000E+00   0.000000E+00   0.000000E+00   0.000000E+00   0.000000E+00   0.000000E+00   0.000000E+00   0.000000E+00   0.000000E+00   0.000000E+00   0.000000E+00
   0.000000E+00   0.000000E+00   0.000000E+00   0.000000E+00   0.000000E+00   0.000000E+00   0.000000E+00   0.000000E+00   0.000000E+00   0.000000E+00   0.000000E+00   0.000000E+00   0.000000E+00   0.000000E+00   0.000000E+00   0.000000E+00   0.000000E+00   0.000000E+00   0.000000E+00   0.000000E+00   0.000000E+00   0.000000E+00   0.000000E+00   0.000000E+00   0.000000E+00   0.000000E+00   0.000000E+00   0.000000E+00   0.000000E+00   0.000000E+00   0.000000E+00   0.000000E+00   0.000000E+00   0.000000E+00   0.000000E+00   0.000000E+00   0.000000E+00   0.000000E+00   0.000000E+00   0.000000E+00   0.000000E+00   0.000000E+00   0.000000E+00   0.000000E+00   0.000000E+00   0.000000E+00   0.000000E+00   0.000000E+00   2.000000E+00   2.000000E+00   2.000000E+00   2.000000E+00   2.000000E+00   2.000000E+00   2.000000E+00   2.000000E+00   2.000000E+00   2.000000E+00   2.000000E+00   2.000000E+00   2.000000E+00   2.000000E+00   2.000000E+00   2.000000E+00   2.000000E+00   2.000000E+00   2.000000E+00   2.000000E+00   2.000000E+00   2.000000E+00   2.000000E+00   2.000000E+00   2.000000E+00   2.000000E+00   2.000000E+00   2.000000E+00   2.000000E+00   2.000000E+00   2.000000E+00   2.000000E+00   2.000000E+00   2.000000E+00   2.000000E+00   2.000000E+00   2.000000E+00   2.000000E+00   2.000000E+00   2.000000E+00   2.000000E+00   2.000000E+00   2.000000E+00   2.000000E+00   2.000000E+00   2.000000E+00   2.000000E+00   2.000000E+00   2.000000E+00   2.000000E+00   2.000000E+00   0.000000E+00   0.000000E+00   0.000000E+00   0.000000E+00   0.000000E+00   0.000000E+00   0.000000E+00   0.000000E+00   0.000000E+00   0.000000E+00   0.000000E+00   0.000000E+00   0.000000E+00   0.000000E+00   0.000000E+00   0.000000E+00   0.000000E+00   0.000000E+00   0.000000E+00   0.000000E+00   0.000000E+00   0.000000E+00   0.000000E+00   0.000000E+00   0.000000E+00   0.000000E+00   0.000000E+00   0.000000E+00   0.000000E+00
   0.000000E+00   0.000000E+00   0.000000E+00   0.000000E+00   0.000000E+00   0.000000E+00   0.000000E+00   0.000000E+00   0.000000E+00   0.000000E+00   0.000000E+00   0.000000E+00   0.000000E+00   0.000000E+00   0.000000E+00   0.000000E+00   0.000000E+00   0.000000E+00   0.000000E+00   0.000000E+00   0.000000E+00   0.000000E+00   0.000000E+00   0.000000E+00   0.000000E+00   0.000000E+00   0.000000E+00   0.000000E+00   0.000000E+00   0.000000E+00   0.000000E+00   0.000000E+00   0.000000E+00   0.000000E+00   0.000000E+00   0.000000E+00   0.000000E+00   0.000000E+00   0.000000E+00   0.000000E+00   0.000000E+00   0.000000E+00   0.000000E+00   0.000000E+00   0.000000E+00   2.000000E+00   2.000000E+00   2.000000E+00   2.000000E+00   2.000000E+00   2.000000E+00   2.000000E+00   2.000000E+00   2.000000E+00   2.000000E+00   2.000000E+00   2.000000E+00   2.000000E+00   2.000000E+00   2.000000E+00   2.000000E+00   2.000000E+00   2.000000E+00   2.000000E+00   2.000000E+00   2.000000E+00   2.000000E+00   2.000000E+00   2.000000E+00   2.000000E+00   2.000000E+00   2.000000E+00   2.000000E+00   2.000000E+00   2.000000E+00   2.000000E+00   2.000000E+00   2.000000E+00   2.000000E+00   2.000000E+00   2.000000E+00   2.000000E+00   2.000000E+00   2.000000E+00   2.000000E+00   2.000000E+00   2.000000E+00   2.000000E+00   2.000000E+00   2.000000E+00   2.000000E+00   2.000000E+00   2.000000E+00   2.000000E+00   2.000000E+00   2.000000E+00   2.000000E+00   2.000000E+00   2.000000E+00   2.000000E+00   2.000000E+00   0.000000E+00   0.000000E+00   0.000000E+00   0.000000E+00   0.000000E+00   0.000000E+00   0.000000E+00   0.000000E+00   0.000000E+00   0.000000E+00   0.000000E+00   0.000000E+00   0.000000E+00   0.000000E+00   0.000000E+00   0.000000E+00   0.000000E+00   0.000000E+00   0.000000E+00   0.000000E+00   0.000000E+00   0.000000E+00   0.000000E+00   0.000000E+00   0.000000E+00   0.000000E+00   0.000000E+00
   0.000000E+00   0.000000E+00   0.000000E+00   0.000000E+00   0.000000E+00   0.000000E+00   0.000000E+00   0.000000E+00   0.000000E+00   0.000000E+00   0.000000E+00   0.000000E+00   0.000000E+00   0.000000E+00   0.000000E+00   0.000000E+00   0.000000E+00   0.000000E+00   0.000000E+00   0.000000E+00   0.000000E+00   0.000000E+00   0.000000E+00   0.000000E+00   0.000000E+00   0.000000E+00   0.000000E+00   0.000000E+00   0.000000E+00   0.000000E+00   0.000000E+00   0.000000E+00   0.000000E+00   0.000000E+00   0.000000E+00   0.000000E+00   0.000000E+00   0.000000E+00   0.000000E+00   0.000000E+00   0.000000E+00   2.000000E+00   2.000000E+00   2.000000E+00   2.000000E+00   2.000000E+00   2.000000E+00   2.000000E+00   2.000000E+00   2.000000E+00   2.000000E+00   2.000000E+00   2.000000E+00   2.000000E+00   2.000000E+00   2.000000E+00   2.000000E+00   2.000000E+00   2.000000E+00   2.000000E+00   2.000000E+00   2.000000E+00   2.000000E+00   2.000000E+00   2.000000E+00   2.000000E+00   2.000000E+00   2.000000E+00   2.000000E+00   2.000000E+00   2.000000E+00   2.000000E+00   2.000000E+00   2.000000E+00   2.000000E+00   2.000000E+00   2.000000E+00   2.000000E+00   2.000000E+00   2.000000E+00   2.000000E+00   2.000000E+00   2.000000E+00   2.000000E+00   2.000000E+00   2.000000E+00   2.000000E+00   2.000000E+00   2.000000E+00   2.000000E+00   2.000000E+00   2.000000E+00   2.000000E+00   2.000000E+00   2.000000E+00   2.000000E+00   2.000000E+00   2.000000E+00   2.000000E+00   2.000000E+00   2.000000E+00   2.000000E+00   0.000000E+00   0.000000E+00   0.000000E+00   0.000000E+00   0.000000E+00   0.000000E+00   0.000000E+00   0.000000E+00   0.000000E+00   0.000000E+00   0.000000E+00   0.000000E+00   0.000000E+00   0.000000E+00   0.000000E+00   0.000000E+00   0.000000E+00   0.000000E+00   0.000000E+00   0.000000E+00   0.000000E+00   0.000000E+00   0.000000E+00   0.000000E+00   0.000000E+00   0.000000E+00
   0.000000E+00   0.000000E+00   0.000000E+00   0.000000E+00   0.000000E+00   0.000000E+00   0.000000E+00   0.000000E+00   0.000000E+00   0.000000E+00   0.000000E+00   0.000000E+00   0.000000E+00   0.000000E+00   0.000000E+00   0.000000E+00   0.000000E+00   0.000000E+00   0.000000E+00   0.000000E+00   0.000000E+00   0.000000E+00   0.000000E+00   0.000000E+00   0.000000E+00   0.000000E+00   0.000000E+00   0.000000E+00   0.000000E+00   0.000000E+00   0.000000E+00   0.000000E+00   0.000000E+00   0.000000E+00   2.000000E+00   2.000000E+00   2.000000E+00   2.000000E+00   2.000000E+00   2.000000E+00   2.000000E+00   2.000000E+00   2.000000E+00   2.000000E+00   2.000000E+00   2.000000E+00   2.000000E+00   2.000000E+00   2.000000E+00   2.000000E+00   2.000000E+00   2.000000E+00   2.000000E+00   2.000000E+00   2.000000E+00   2.000000E+00   2.000000E+00   2.000000E+00   2.000000E+00   2.000000E+00   2.000000E+00   2.000000E+00   2.000000E+00   2.000000E+00   2.000000E+00   2.000000E+00   2.000000E+00   2.000000E+00   2.000000E+00   2.000000E+00   2.000000E+00   2.000000E+00   2.000000E+00   2.000000E+00   2.000000E+00   2.000000E+00   2.000000E+00   2.000000E+00   2.000000E+00   2.000000E+00   2.000000E+00   2.000000E+00   2.000000E+00   2.000000E+00   2.000000E+00   2.000000E+00   2.000000E+00   2.000000E+00   2.000000E+00   2.000000E+00   2.000000E+00   2.000000E+00   2.000000E+00   2.000000E+00   2.000000E+00   2.000000E+00   2.000000E+00   2.000000E+00   2.000000E+00   2.000000E+00   2.000000E+00   2.000000E+00   2.000000E+00   2.000000E+00   0.000000E+00   0.000000E+00   0.000000E+00   0.000000E+00   0.000000E+00   0.000000E+00   0.000000E+00   0.000000E+00   0.000000E+00   0.000000E+00   0.000000E+00   0.000000E+00   0.000000E+00   0.000000E+00   0.000000E+00   0.000000E+00   0.000000E+00   0.000000E+00   0.000000E+00   0.000000E+00   0.000000E+00   0.000000E+00   0.000000E+00   0.000000E+00
   0.000000E+00   0.000000E+00   0.000000E+00   0.000000E+00   0.000000E+00   0.000000E+00   0.000000E+00   0.000000E+00   0.000000E+00   0.000000E+00   0.000000E+00   0.000000E+00   0.000000E+00   0.000000E+00   0.000000E+00   0.000000E+00   0.000000E+00   0.000000E+00   0.000000E+00   0.000000E+00   0.000000E+00   0.000000E+00   0.000000E+00   0.000000E+00   0.000000E+00   0.000000E+00   0.000000E+00   2.000000E+00   2.000000E+00   2.000000E+00   2.000000E+00   2.000000E+00   2.000000E+00   2.000000E+00   2.000000E+00   2.000000E+00   2.000000E+00   2.000000E+00   2.000000E+00   2.000000E+00   2.000000E+00   2.000000E+00   2.000000E+00   2.000000E+00   2.000000E+00   2.000000E+00   2.000000E+00   2.000000E+00   2.000000E+00   2.000000E+00   2.000000E+00   2.000000E+00   2.000000E+00   2.000000E+00   2.000000E+00   2.000000E+00   2.000000E+00   2.000000E+00   2.000000E+00   2.000000E+00   2.000000E+00   2.000000E+00   2.000000E+00   2.000000E+00   2.000000E+00   2.000000E+00   2.000000E+00   2.000000E+00   2.000000E+00   2.000000E+00   2.000000E+00   2.000000E+00   2.000000E+00   2.000000E+00   2.000000E+00   2.000000E+00   2.000000E+00   2.000000E+00   2.000000E+00   2.000000E+00   2.000000E+00   2.000000E+00   2.000000E+00   2.000000E+00   2.000000E+00   2.000000E+00   2.000000E+00   2.000000E+00   2.000000E+00   2.000000E+00   2.000000E+00   2.000000E+00   2.000000E+00   2.000000E+00   2.000000E+00   2.000000E+00   2.000000E+00   2.000000E+00   2.000000E+00   2.000000E+00   2.000000E+00   2.000000E+00   2.000000E+00   2.000000E+00   2.000000E+00   0.000000E+00   0.000000E+00   0.000000E+00   0.000000E+00   0.000000E+00   0.000000E+00   0.000000E+00   0.000000E+00   0.000000E+00   0.000000E+00   0.000000E+00   0.000000E+00   0.000000E+00   0.000000E+00   0.000000E+00   0.000000E+00   0.000000E+00   0.000000E+00   0.000000E+00   0.000000E+00   0.000000E+00   0.000000E+00   0.000000E+00
   0.000000E+00   0.000000E+00   0.000000E+00   0.000000E+00   0.000000E+00   0.000000E+00   0.000000E+00   0.000000E+00   0.000000E+00   0.000000E+00   0.000000E+00   0.000000E+00   0.000000E+00   0.000000E+00   0.000000E+00   0.000000E+00   0.000000E+00   0.000000E+00   0.000000E+00   0.000000E+00   0.000000E+00   0.000000E+00   0.000000E+00   2.000000E+00   2.000000E+00   2.000000E+00   2.000000E+00   2.000000E+00   2.000000E+00   2.000000E+00   2.000000E+00   2.000000E+00   2.000000E+00   2.000000E+00   2.000000E+00   2.000000E+00   2.000000E+00   2.000000E+00   2.000000E+00   2.000000E+00   2.000000E+00   2.000000E+00   2.000000E+00   2.000000E+00   2.000000E+00   2.000000E+00   2.000000E+00   2.000000E+00   2.000000E+00   2.000000E+00   2.000000E+00   2.000000E+00   2.000000E+00   2.000000E+00   2.000000E+00   2.000000E+00   2.000000E+00   2.000000E+00   2.000000E+00   2.000000E+00   2.000000E+00   2.000000E+00   2.000000E+00   2.000000E+00   2.000000E+00   2.000000E+00   2.000000E+00   2.000000E+00   2.000000E+00   2.000000E+00   2.000000E+00   2.000000E+00   2.000000E+00   2.000000E+00   2.000000E+00   2.000000E+00   2.000000E+00   2.000000E+00   2.000000E+00   2.000000E+00   2.000000E+00   2.000000E+00   2.000000E+00   2.000000E+00   2.000000E+00   2.000000E+00   2.000000E+00   2.000000E+00   2.000000E+00   2.000000E+00   2.000000E+00   2.000000E+00   2.000000E+00   2.000000E+00   2.000000E+00   2.000000E+00   2.000000E+00   2.000000E+00   2.000000E+00   2.000000E+00   2.000000E+00   2.000000E+00   2.000000E+00   2.000000E+00   2.000000E+00   2.000000E+00   5.000000E-01   0.000000E+00   0.000000E+00   0.000000E+00   0.000000E+00   0.000000E+00   0.000000E+00   0.000000E+00   0.000000E+00   0.000000E+00   0.000000E+00   0.000000E+00   0.000000E+00   0.000000E+00   0.000000E+00   0.000000E+00   0.000000E+00   0.000000E+00   0.000000E+00   0.000000E+00   0.000000E+00   0.000000E+00
   0.000000E+00   0.000000E+00   0.000000E+00   0.000000E+00   0.000000E+00   0.000000E+00   0.000000E+00   0.000000E+00   0.000000E+00   0.000000E+00   0.000000E+00   0.000000E+00   0.000000E+00   0.000000E+00   0.000000E+00   0.000000E+00   0.000000E+00   0.000000E+00   0.000000E+00   2.000000E+00   2.000000E+00   2.000000E+00   2.000000E+00   2.000000E+00   2.000000E+00   2.000000E+00   2.000000E+00   2.000000E+00   2.000000E+00   2.000000E+00   2.000000E+00   2.000000E+00   2.000000E+00   2.000000E+00   2.000000E+00   2.000000E+00   2.000000E+00   2.000000E+00   2.000000E+00   2.000000E+00   2.000000E+00   2.000000E+00   2.000000E+00   2.000000E+00   2.000000E+00   2.000000E+00   2.000000E+00   2.000000E+00   2.000000E+00   2.000000E+00   2.000000E+00   2.000000E+00   2.000000E+00   2.000000E+00   2.000000E+00   2.000000E+00   2.000000E+00   2.000000E+00   2.000000E+00   2.000000E+00   2.000000E+00   2.000000E+00   2.000000E+00   2.000000E+00   2.000000E+00   2.000000E+00   2.000000E+00   2.000000E+00   2.000000E+00   2.000000E+00   2.000000E+00   2.000000E+00   2.000000E+00   2.000000E+00   2.000000E+00   2.000000E+00   2.000000E+00   2.000000E+00   2.000000E+00   2.000000E+00   2.000000E+00   2.000000E+00   2.000000E+00   2.000000E+00   2.000000E+00   2.000000E+00   2.000000E+00   2.000000E+00   2.000000E+00   2.000000E+00   2.000000E+00   2.000000E+00   2.000000E+00   2.000000E+00   2.000000E+00   2.000000E+00   2.000000E+00   2.000000E+00   2.000000E+00   2.000000E+00   2.000000E+00   2.000000E+00   2.000000E+00   2.000000E+00   2.000000E+00   5.000000E-01   5.000000E-01   5.000000E-01   5.000000E-01   5.000000E-01   0.000000E+00   0.000000E+00   0.000000E+00   0.000000E+00   0.000000E+00   0.000000E+00   0.000000E+00   0.000000E+00   0.000000E+00   0.000000E+00   0.000000E+00   0.000000E+00   0.000000E+00   0.000000E+00   0.000000E+00   0.000000E+00   0.000000E+00   0.000000E+00
   0.000000E+00   0.000000E+00   0.000000E+00   0.000000E+00   0.000000E+00   0.000000E+00   0.000000E+00   0.000000E+00   0.000000E+00   0.000000E+00   0.000000E+00   0.000000E+00   0.000000E+00   0.000000E+00   0.000000E+00   0.000000E+00   0.000000E+00   1.000000E+00   1.000000E+00   2.000000E+00   2.000000E+00   2.000000E+00   2.000000E+00   2.000000E+00   2.000000E+00   2.000000E+00   2.000000E+00   2.000000E+00   2.000000E+00   2.000000E+00   2.000000E+00   2.000000E+00   2.000000E+00   2.000000E+00   2.000000E+00   2.000000E+00   2.000000E+00   2.000000E+00   2.000000E+00   2.000000E+00   2.000000E+00   2.000000E+00   2.000000E+00   2.000000E+00   2.000000E+00   2.000000E+00   2.000000E+00   2.000000E+00   2.000000E+00   2.000000E+00   2.000000E+00   2.000000E+00   2.000000E+00   2.000000E+00   2.000000E+00   2.000000E+00   2.000000E+00   2.000000E+00   2.000000E+00   2.000000E+00   2.000000E+00   2.000000E+00   2.000000E+00   2.000000E+00   2.000000E+00   2.000000E+00   2.000000E+00   2.000000E+00   2.000000E+00   2.000000E+00   2.000000E+00   2.000000E+00   2.000000E+00   2.000000E+00   2.000000E+00   2.000000E+00   2.000000E+00   2.000000E+00   2.000000E+00   2.000000E+00   2.000000E+00   2.000000E+00   2.000000E+00   2.000000E+00   2.000000E+00   2.000000E+00   2.000000E+00   2.000000E+00   2.000000E+00   2.000000E+00   2.000000E+00   2.000000E+00   2.000000E+00   2.000000E+00   2.000000E+00   2.000000E+00   2.000000E+00   2.000000E+00   2.000000E+00   2.000000E+00   2.000000E+00   2.000000E+00   2.000000E+00   5.000000E-01   5.000000E-01   5.000000E-01   5.000000E-01   5.000000E-01   5.000000E-01   5.000000E-01   5.000000E-01   5.000000E-01   5.000000E-01   0.000000E+00   0.000000E+00   0.000000E+00   0.000000E+00   0.000000E+00   0.000000E+00   0.000000E+00   0.000000E+00   0.000000E+00   0.000000E+00   0.000000E+00   0.000000E+00   0.000000E+00   0.000000E+00   0.000000E+00
   0.000000E+00   0.000000E+00   0.000000E+00   0.000000E+00   0.000000E+00   0.000000E+00   0.000000E+00   0.000000E+00   0.000000E+00   0.000000E+00   0.000000E+00   0.000000E+00   0.000000E+00   0.000000E+00   1.000000E+00   1.000000E+00   1.000000E+00   1.000000E+00   1.000000E+00   2.000000E+00   2.000000E+00   2.000000E+00   2.000000E+00   2.000000E+00   2.000000E+00   2.000000E+00   2.000000E+00   2.000000E+00   2.000000E+00   2.000000E+00   2.000000E+00   2.000000E+00   2.000000E+00   2.000000E+00   2.000000E+00   2.000000E+00   2.000000E+00   2.000000E+00   2.000000E+00   2.000000E+00   2.000000E+00   2.000000E+00   2.000000E+00   2.000000E+00   2.000000E+00   2.000000E+00   2.000000E+00   2.000000E+00   2.000000E+00   2.000000E+00   2.000000E+00   2.000000E+00   2.000000E+00   2.000000E+00   2.000000E+00   2.000000E+00   2.000000E+00   2.000000E+00   2.000000E+00   2.000000E+00   2.000000E+00   2.000000E+00   2.000000E+00   2.000000E+00   2.000000E+00   2.000000E+00   2.000000E+00   2.000000E+00   2.000000E+00   2.000000E+00   2.000000E+00   2.000000E+00   2.000000E+00   2.000000E+00   2.000000E+00   2.000000E+00   2.000000E+00   2.000000E+00   2.000000E+00   2.000000E+00   2.000000E+00   2.000000E+00   2.000000E+00   2.000000E+00   2.000000E+00   2.000000E+00   2.000000E+00   2.000000E+00   2.000000E+00   2.000000E+00   2.000000E+00   2.000000E+00   2.000000E+00   2.000000E+00   2.000000E+00   2.000000E+00   2.000000E+00   2.000000E+00   2.000000E+00   2.000000E+00   2.000000E+00   2.000000E+00   2.000000E+00   5.000000E-01   5.000000E-01   5.000000E-01   5.000000E-01   5.000000E-01   5.000000E-01   5.000000E-01   5.000000E-01   5.000000E-01   5.000000E-01   5.000000E-01   5.000000E-01   5.000000E-01   5.000000E-01   0.000000E+00   0.000000E+00   0.000000E+00   0.000000E+00   0.000000E+00   0.000000E+00   0.000000E+00   0.000000E+00   0.000000E+00   0.000000E+00   0.000000E+00
   0.000000E+00   0.000000E+00   0.000000E+00   0.000000E+00   0.000000E+00   0.000000E+00   0.000000E+00   0.000000E+00   0.000000E+00   0.000000E+00   0.000000E+00   0.000000E+00   1.000000E+00   1.000000E+00   1.000000E+00   1.000000E+00   1.000000E+00   1.000000E+00   1.000000E+00   2.000000E+00   2.000000E+00   2.000000E+00   2.000000E+00   2.000000E+00   2.000000E+00   2.000000E+00   2.000000E+00   2.000000E+00   2.000000E+00   2.000000E+00   2.000000E+00   2.000000E+00   2.000000E+00   2.000000E+00   2.000000E+00   2.000000E+00   2.000000E+00   2.000000E+00   2.000000E+00   2.000000E+00   2.000000E+00   2.000000E+00   2.000000E+00   2.000000E+00   2.000000E+00   2.000000E+00   2.000000E+00   2.000000E+00   2.000000E+00   2.000000E+00   2.000000E+00   2.000000E+00   2.000000E+00   2.000000E+00   2.000000E+00   2.000000E+00   2.000000E+00   2.000000E+00   2.000000E+00   2.000000E+00   2.000000E+00   2.000000E+00   2.000000E+00   2.000000E+00   2.000000E+00   2.000000E+00   2.000000E+00   2.000000E+00   2.000000E+00   2.000000E+00   2.000000E+00   2.000000E+00   2.000000E+00   2.000000E+00   2.000000E+00   2.000000E+00   2.000000E+00   2.000000E+00   2.000000E+00   2.000000E+00   2.000000E+00   2.000000E+00   2.000000E+00   2.000000E+00   2.000000E+00   2.000000E+00   2.000000E+00   2.000000E+00   2.000000E+00   2.000000E+00   2.000000E+00   2.000000E+00   2.000000E+00   2.000000E+00   2.000000E+00   2.000000E+00   2.000000E+00   2.000000E+00   2.000000E+00   2.000000E+00   2.000000E+00   2.000000E+00   5.000000E-01   5.000000E-01   5.000000E-01   5.000000E-01   5.000000E-01   5.000000E-01   5.000000E-01   5.000000E-01   5.000000E-01   5.000000E-01   5.000000E-01   5.000000E-01   5.000000E-01   5.000000E-01   5.000000E-01   5.000000E-01   5.000000E-01   5.000000E-01   0.000000E+00   0.000000E+00   0.000000E+00   0.000000E+00   0.000000E+00   0.000000E+00   0.000000E+00   0.000000E+00